# created with PyMOL 2.5.2
@<TRIPOS>MOLECULE
CDK6_2EUF_TargetProtein
33 37 1                 
SMALL
USER_CHARGES
@<TRIPOS>ATOM
1	  C1	34.399	27.611	59.383	C.3	1	RES1	0.000	
2	  N1	31.682	22.738	63.587	N.2	1	RES1	0.000	
3	  O1	32.422	28.660	60.207	O.2	1	RES1	0.000	
4	  C2	33.030	27.645	59.996	C.2	1	RES1	0.000	
5	  N2	30.455	20.822	62.866	N.pl3	1	RES1	0.000	
6	  C3	32.447	26.325	60.381	C.2	1	RES1	0.000	
7	  N3	27.808	16.867	59.788	N.pl3	1	RES1	0.000	
8	  C4	32.590	25.895	61.686	C.2	1	RES1	0.000	
9	  N4	26.272	14.774	58.508	N.3	1	RES1	0.000	
10	  C5	33.277	26.656	62.775	C.3	1	RES1	0.000	
11	  C6	32.033	24.568	62.036	C.2	1	RES1	0.000	
12	  C7	32.204	23.950	63.266	C.2	1	RES1	0.000	
13	  C8	30.998	22.080	62.646	C.2	1	RES1	0.000	
14	  C9	29.766	19.904	62.047	C.2	1	RES1	0.000	
15	  N9	29.768	18.624	62.486	N.2	1	RES1	0.000	
16	  O9	31.640	25.957	58.243	O.2	1	RES1	0.000	
17	 C10	29.128	20.224	60.863	C.2	1	RES1	0.000	
18	 N10	30.806	22.591	61.420	N.2	1	RES1	0.000	
19	 C11	28.468	19.244	60.124	C.2	1	RES1	0.000	
20	 N11	31.099	24.310	59.784	N.2	1	RES1	0.000	
21	 C12	28.461	17.947	60.516	C.2	1	RES1	0.000	
22	 C13	26.947	17.176	58.625	C.3	1	RES1	0.000	
23	 C14	26.714	15.928	57.736	C.3	1	RES1	0.000	
24	 C36	27.299	14.431	59.530	C.3	1	RES1	0.000	
25	 C37	27.526	15.618	60.494	C.3	1	RES1	0.000	
26	 C38	29.141	17.672	61.747	C.2	1	RES1	0.000	
27	 C39	31.321	23.799	61.115	C.2	1	RES1	0.000	
28	 C40	30.348	23.493	58.815	C.3	1	RES1	0.000	
29	 C41	31.217	22.901	57.695	C.3	1	RES1	0.000	
30	 C42	30.262	22.801	56.536	C.3	1	RES1	0.000	
31	 C43	29.457	24.086	56.624	C.3	1	RES1	0.000	
32	 C44	29.221	24.252	58.113	C.3	1	RES1	0.000	
33	 C45	31.696	25.513	59.386	C.2	1	RES1	0.000	
@<TRIPOS>BOND
1 1 4 1
2 2 12 ar
3 2 13 ar
4 3 4 2
5 4 6 1
6 5 13 1
7 5 14 1
8 6 8 ar
9 6 33 ar
10 7 25 1
11 8 10 1
12 8 11 ar
13 11 12 ar
14 14 15 ar
15 14 17 ar
16 17 19 ar
17 13 18 ar
18 18 27 ar
19 19 21 ar
20 20 27 ar
21 20 28 1
22 20 33 ar
23 7 21 1
24 21 26 ar
25 7 22 1
26 22 23 1
27 9 23 1
28 9 24 1
29 24 25 1
30 15 26 ar
31 11 27 ar
32 28 29 1
33 28 32 1
34 29 30 1
35 30 31 1
36 31 32 1
37 16 33 2
@<TRIPOS>SUBSTRUCTURE
1	RES1	1	GROUP	1 ****	RES
