# created with PyMOL 2.5.2
@<TRIPOS>MOLECULE
CDK6_2EUF_TargetProtein
33 37 1                 
SMALL
USER_CHARGES
@<TRIPOS>ATOM
1	  C1	34.410	27.543	59.309	C.3	1	RES1	0.000	
2	  N1	31.644	22.794	63.651	N.2	1	RES1	0.000	
3	  O1	32.483	28.640	60.191	O.2	1	RES1	0.000	
4	  C2	33.049	27.597	59.968	C.2	1	RES1	0.000	
5	  N2	30.340	20.876	62.945	N.pl3	1	RES1	0.000	
6	  C3	32.444	26.277	60.371	C.2	1	RES1	0.000	
7	  N3	27.733	16.888	59.864	N.pl3	1	RES1	0.000	
8	  C4	32.632	25.864	61.665	C.2	1	RES1	0.000	
9	  N4	26.657	14.811	58.152	N.3	1	RES1	0.000	
10	  C5	33.374	26.621	62.735	C.3	1	RES1	0.000	
11	  C6	32.050	24.569	62.021	C.2	1	RES1	0.000	
12	  C7	32.162	23.970	63.306	C.2	1	RES1	0.000	
13	  C8	30.953	22.117	62.703	C.2	1	RES1	0.000	
14	  C9	29.689	19.946	62.110	C.2	1	RES1	0.000	
15	  N9	29.482	18.735	62.639	N.2	1	RES1	0.000	
16	 C10	29.235	20.246	60.804	C.2	1	RES1	0.000	
17	 N10	30.779	22.578	61.450	N.2	1	RES1	0.000	
18	 C11	28.600	19.226	60.038	C.2	1	RES1	0.000	
19	 N11	31.156	24.272	59.797	N.2	1	RES1	0.000	
20	 O11	31.525	25.977	58.275	O.2	1	RES1	0.000	
21	 C12	28.387	17.962	60.606	C.2	1	RES1	0.000	
22	 C13	28.467	15.615	59.688	C.3	1	RES1	0.000	
23	 C14	27.507	14.460	59.283	C.3	1	RES1	0.000	
24	 C40	25.885	16.039	58.471	C.3	1	RES1	0.000	
25	 C41	26.762	17.215	58.839	C.3	1	RES1	0.000	
26	 C42	28.863	17.794	61.893	C.2	1	RES1	0.000	
27	 C43	31.322	23.782	61.101	C.2	1	RES1	0.000	
28	 C44	30.369	23.435	58.833	C.3	1	RES1	0.000	
29	 C45	31.175	22.742	57.756	C.3	1	RES1	0.000	
30	 C46	30.601	23.174	56.409	C.3	1	RES1	0.000	
31	 C47	29.180	23.541	56.717	C.3	1	RES1	0.000	
32	 C48	29.316	24.264	58.066	C.3	1	RES1	0.000	
33	 C49	31.671	25.498	59.370	C.2	1	RES1	0.000	
@<TRIPOS>BOND
1 1 4 1
2 2 12 ar
3 2 13 ar
4 3 4 2
5 4 6 1
6 5 13 1
7 5 14 1
8 6 8 ar
9 6 33 ar
10 7 25 1
11 8 10 1
12 8 11 ar
13 9 24 1
14 11 12 ar
15 14 15 ar
16 14 16 ar
17 16 18 ar
18 13 17 ar
19 17 27 ar
20 18 21 ar
21 19 27 ar
22 19 28 1
23 19 33 ar
24 20 33 2
25 7 21 1
26 21 26 ar
27 7 22 1
28 22 23 1
29 9 23 1
30 24 25 1
31 15 26 ar
32 11 27 ar
33 28 29 1
34 28 32 1
35 29 30 1
36 30 31 1
37 31 32 1
@<TRIPOS>SUBSTRUCTURE
1	RES1	1	GROUP	1 ****	RES
