# created with PyMOL 2.5.2
@<TRIPOS>MOLECULE
CDK6_2EUF_TargetProtein
33 37 1                 
SMALL
USER_CHARGES
@<TRIPOS>ATOM
1	  C1	34.437	27.620	59.402	C.3	1	RES1	0.000	
2	  N1	31.485	22.798	63.590	N.2	1	RES1	0.000	
3	  O1	32.516	28.688	60.247	O.2	1	RES1	0.000	
4	  C2	33.089	27.646	60.068	C.2	1	RES1	0.000	
5	  N2	30.202	20.910	62.858	N.pl3	1	RES1	0.000	
6	  C3	32.500	26.326	60.422	C.2	1	RES1	0.000	
7	  N3	27.806	16.829	59.814	N.pl3	1	RES1	0.000	
8	  C4	32.669	25.838	61.665	C.2	1	RES1	0.000	
9	  N4	26.414	14.524	58.683	N.3	1	RES1	0.000	
10	  C5	33.503	26.529	62.753	C.3	1	RES1	0.000	
11	  C6	32.037	24.526	61.999	C.2	1	RES1	0.000	
12	  C7	32.093	23.953	63.283	C.2	1	RES1	0.000	
13	  O7	31.567	26.091	58.298	O.2	1	RES1	0.000	
14	  C8	30.827	22.157	62.629	C.2	1	RES1	0.000	
15	  C9	29.600	19.948	62.052	C.2	1	RES1	0.000	
16	 C10	29.264	20.176	60.724	C.2	1	RES1	0.000	
17	 C11	28.670	19.151	59.960	C.2	1	RES1	0.000	
18	 N11	29.387	18.760	62.618	N.2	1	RES1	0.000	
19	 C12	28.433	17.887	60.533	C.2	1	RES1	0.000	
20	 N12	30.732	22.640	61.372	N.2	1	RES1	0.000	
21	 C13	28.483	15.493	59.664	C.3	1	RES1	0.000	
22	 N13	31.186	24.302	59.738	N.2	1	RES1	0.000	
23	 C14	27.880	14.679	58.557	C.3	1	RES1	0.000	
24	 C35	25.799	15.871	58.652	C.3	1	RES1	0.000	
25	 C36	26.306	16.766	59.767	C.3	1	RES1	0.000	
26	 C37	28.829	17.783	61.857	C.2	1	RES1	0.000	
27	 C38	31.328	23.813	61.070	C.2	1	RES1	0.000	
28	 C39	30.460	23.543	58.734	C.3	1	RES1	0.000	
29	 C40	31.293	22.856	57.651	C.3	1	RES1	0.000	
30	 C41	30.715	23.330	56.332	C.3	1	RES1	0.000	
31	 C42	29.292	23.704	56.650	C.3	1	RES1	0.000	
32	 C43	29.391	24.349	57.995	C.3	1	RES1	0.000	
33	 C44	31.707	25.580	59.387	C.2	1	RES1	0.000	
@<TRIPOS>BOND
1 1 4 1
2 2 12 ar
3 2 14 ar
4 3 4 2
5 4 6 1
6 5 14 1
7 5 15 1
8 6 8 ar
9 6 33 ar
10 7 25 1
11 8 10 1
12 8 11 ar
13 11 12 ar
14 15 16 ar
15 16 17 ar
16 17 19 ar
17 15 18 ar
18 18 26 ar
19 7 19 1
20 19 26 ar
21 14 20 ar
22 20 27 ar
23 7 21 1
24 21 23 1
25 22 27 ar
26 22 28 1
27 22 33 ar
28 9 23 1
29 9 24 1
30 24 25 1
31 11 27 ar
32 28 29 1
33 28 32 1
34 29 30 1
35 30 31 1
36 31 32 1
37 13 33 2
@<TRIPOS>SUBSTRUCTURE
1	RES1	1	GROUP	1 ****	RES
