# created with PyMOL 2.5.2
@<TRIPOS>MOLECULE
CDK6_2EUF_TargetProtein
33 37 1                 
SMALL
USER_CHARGES
@<TRIPOS>ATOM
1	  C1	34.486	27.750	59.549	C.3	1	RES1	0.000	
2	  N1	31.545	22.689	63.441	N.2	1	RES1	0.000	
3	  O1	32.500	28.762	60.437	O.2	1	RES1	0.000	
4	  C2	33.121	27.741	60.176	C.2	1	RES1	0.000	
5	  N2	30.357	20.824	62.711	N.pl3	1	RES1	0.000	
6	  C3	32.515	26.401	60.476	C.2	1	RES1	0.000	
7	  N3	27.679	16.641	60.009	N.pl3	1	RES1	0.000	
8	  C4	32.640	25.857	61.721	C.2	1	RES1	0.000	
9	  N4	26.534	14.422	58.488	N.3	1	RES1	0.000	
10	  C5	33.403	26.499	62.860	C.3	1	RES1	0.000	
11	  C6	32.030	24.567	61.939	C.2	1	RES1	0.000	
12	  C7	32.086	23.878	63.194	C.2	1	RES1	0.000	
13	  O7	31.740	26.217	58.279	O.2	1	RES1	0.000	
14	  C8	30.900	22.080	62.406	C.2	1	RES1	0.000	
15	  C9	29.683	19.842	61.975	C.2	1	RES1	0.000	
16	  N9	29.622	18.611	62.531	N.2	1	RES1	0.000	
17	 C10	29.054	20.073	60.751	C.2	1	RES1	0.000	
18	 N10	30.774	22.636	61.211	N.2	1	RES1	0.000	
19	 C11	28.410	19.026	60.081	C.2	1	RES1	0.000	
20	 N11	31.168	24.469	59.682	N.2	1	RES1	0.000	
21	 C12	28.348	17.732	60.659	C.2	1	RES1	0.000	
22	 C13	26.900	16.895	58.768	C.3	1	RES1	0.000	
23	 C14	25.909	15.732	58.473	C.3	1	RES1	0.000	
24	 C35	27.156	14.216	59.839	C.3	1	RES1	0.000	
25	 C36	28.189	15.270	60.190	C.3	1	RES1	0.000	
26	 C37	28.992	17.624	61.891	C.2	1	RES1	0.000	
27	 C38	31.320	23.858	60.973	C.2	1	RES1	0.000	
28	 C39	30.388	23.752	58.661	C.3	1	RES1	0.000	
29	 C40	31.280	23.137	57.562	C.3	1	RES1	0.000	
30	 C41	30.406	23.138	56.330	C.3	1	RES1	0.000	
31	 C42	29.644	24.454	56.444	C.3	1	RES1	0.000	
32	 C43	29.345	24.571	57.927	C.3	1	RES1	0.000	
33	 C44	31.776	25.701	59.387	C.2	1	RES1	0.000	
@<TRIPOS>BOND
1 1 4 1
2 2 12 ar
3 2 14 ar
4 3 4 2
5 4 6 1
6 5 14 1
7 5 15 1
8 6 8 ar
9 6 33 ar
10 7 25 1
11 8 10 1
12 8 11 ar
13 11 12 ar
14 15 16 ar
15 15 17 ar
16 17 19 ar
17 14 18 ar
18 18 27 ar
19 19 21 ar
20 20 27 ar
21 20 28 1
22 20 33 ar
23 7 21 1
24 21 26 ar
25 7 22 1
26 22 23 1
27 9 23 1
28 9 24 1
29 24 25 1
30 16 26 ar
31 11 27 ar
32 28 29 1
33 28 32 1
34 29 30 1
35 30 31 1
36 31 32 1
37 13 33 2
@<TRIPOS>SUBSTRUCTURE
1	RES1	1	GROUP	1 ****	RES
