# created with PyMOL 2.5.2
@<TRIPOS>MOLECULE
CDK6_2EUF_TargetProtein
33 37 1                 
SMALL
USER_CHARGES
@<TRIPOS>ATOM
1	  C1	34.450	27.547	59.337	C.3	1	RES1	0.000	
2	  N1	31.600	22.761	63.592	N.2	1	RES1	0.000	
3	  O1	32.539	28.678	60.207	O.2	1	RES1	0.000	
4	  C2	33.092	27.605	60.025	C.2	1	RES1	0.000	
5	  N2	30.310	20.870	62.861	N.pl3	1	RES1	0.000	
6	  C3	32.476	26.326	60.421	C.2	1	RES1	0.000	
7	  N3	27.749	16.834	59.880	N.pl3	1	RES1	0.000	
8	  C4	32.648	25.871	61.682	C.2	1	RES1	0.000	
9	  N4	26.496	14.616	58.348	N.3	1	RES1	0.000	
10	  C5	33.359	26.619	62.791	C.3	1	RES1	0.000	
11	  C6	32.042	24.563	62.011	C.2	1	RES1	0.000	
12	  O6	31.598	26.072	58.269	O.2	1	RES1	0.000	
13	  C7	32.145	23.947	63.272	C.2	1	RES1	0.000	
14	  C8	30.912	22.138	62.626	C.2	1	RES1	0.000	
15	  C9	29.671	19.922	62.068	C.2	1	RES1	0.000	
16	 C10	29.217	20.190	60.763	C.2	1	RES1	0.000	
17	 C11	28.553	19.175	60.080	C.2	1	RES1	0.000	
18	 N11	29.533	18.684	62.602	N.2	1	RES1	0.000	
19	 C12	28.380	17.889	60.578	C.2	1	RES1	0.000	
20	 N12	30.751	22.637	61.383	N.2	1	RES1	0.000	
21	 C13	28.465	15.561	59.626	C.3	1	RES1	0.000	
22	 N13	31.155	24.334	59.756	N.2	1	RES1	0.000	
23	 C14	27.475	14.413	59.438	C.3	1	RES1	0.000	
24	 C36	26.180	16.016	58.128	C.3	1	RES1	0.000	
25	 C37	26.383	16.952	59.342	C.3	1	RES1	0.000	
26	 C38	28.903	17.725	61.874	C.2	1	RES1	0.000	
27	 C39	31.312	23.835	61.095	C.2	1	RES1	0.000	
28	 C40	30.381	23.544	58.777	C.3	1	RES1	0.000	
29	 C41	31.210	22.827	57.714	C.3	1	RES1	0.000	
30	 C42	30.643	23.310	56.389	C.3	1	RES1	0.000	
31	 C43	29.231	23.688	56.682	C.3	1	RES1	0.000	
32	 C44	29.336	24.370	58.035	C.3	1	RES1	0.000	
33	 C45	31.707	25.546	59.371	C.2	1	RES1	0.000	
@<TRIPOS>BOND
1 1 4 1
2 2 13 ar
3 2 14 ar
4 3 4 2
5 4 6 1
6 5 14 1
7 5 15 1
8 6 8 ar
9 6 33 ar
10 7 25 1
11 8 10 1
12 8 11 ar
13 11 13 ar
14 15 16 ar
15 16 17 ar
16 17 19 ar
17 15 18 ar
18 18 26 ar
19 7 19 1
20 19 26 ar
21 14 20 ar
22 20 27 ar
23 7 21 1
24 21 23 1
25 22 27 ar
26 22 28 1
27 22 33 ar
28 9 23 1
29 9 24 1
30 24 25 1
31 11 27 ar
32 28 29 1
33 28 32 1
34 29 30 1
35 30 31 1
36 31 32 1
37 12 33 2
@<TRIPOS>SUBSTRUCTURE
1	RES1	1	GROUP	1 ****	RES
