# created with PyMOL 2.5.2
@<TRIPOS>MOLECULE
CDK6_2EUF_TargetProtein
33 37 1                 
SMALL
USER_CHARGES
@<TRIPOS>ATOM
1	  C1	34.574	27.630	59.561	C.3	1	RES1	0.000	
2	  N1	31.549	22.698	63.447	N.2	1	RES1	0.000	
3	  O1	32.622	28.750	60.380	O.2	1	RES1	0.000	
4	  C2	33.182	27.681	60.150	C.2	1	RES1	0.000	
5	  N2	30.357	20.818	62.727	N.pl3	1	RES1	0.000	
6	  C3	32.525	26.389	60.464	C.2	1	RES1	0.000	
7	  N3	27.688	16.654	59.992	N.pl3	1	RES1	0.000	
8	  C4	32.593	25.885	61.723	C.2	1	RES1	0.000	
9	  N4	26.568	14.446	58.491	N.3	1	RES1	0.000	
10	  C5	33.273	26.603	62.876	C.3	1	RES1	0.000	
11	  C6	32.001	24.583	61.976	C.2	1	RES1	0.000	
12	  O6	31.844	26.132	58.233	O.2	1	RES1	0.000	
13	  C7	32.078	23.906	63.200	C.2	1	RES1	0.000	
14	  C8	30.892	22.079	62.422	C.2	1	RES1	0.000	
15	  C9	29.674	19.843	61.989	C.2	1	RES1	0.000	
16	 C10	29.026	20.089	60.759	C.2	1	RES1	0.000	
17	 C11	28.381	19.033	60.111	C.2	1	RES1	0.000	
18	 N11	29.672	18.604	62.533	N.2	1	RES1	0.000	
19	 C12	28.352	17.741	60.647	C.2	1	RES1	0.000	
20	 N12	30.774	22.660	61.208	N.2	1	RES1	0.000	
21	 C13	26.882	16.897	58.792	C.3	1	RES1	0.000	
22	 N13	31.146	24.488	59.708	N.2	1	RES1	0.000	
23	 C14	25.914	15.745	58.481	C.3	1	RES1	0.000	
24	 C37	27.231	14.192	59.761	C.3	1	RES1	0.000	
25	 C38	28.260	15.288	60.117	C.3	1	RES1	0.000	
26	 C39	29.027	17.618	61.875	C.2	1	RES1	0.000	
27	 C40	31.274	23.876	60.984	C.2	1	RES1	0.000	
28	 C41	30.342	23.756	58.670	C.3	1	RES1	0.000	
29	 C42	31.195	23.104	57.584	C.3	1	RES1	0.000	
30	 C43	30.310	23.139	56.354	C.3	1	RES1	0.000	
31	 C44	29.580	24.476	56.468	C.3	1	RES1	0.000	
32	 C45	29.296	24.606	57.959	C.3	1	RES1	0.000	
33	 C46	31.817	25.656	59.382	C.2	1	RES1	0.000	
@<TRIPOS>BOND
1 1 4 1
2 2 13 ar
3 2 14 ar
4 3 4 2
5 4 6 1
6 5 14 1
7 5 15 1
8 6 8 ar
9 6 33 ar
10 7 25 1
11 8 10 1
12 8 11 ar
13 11 13 ar
14 15 16 ar
15 16 17 ar
16 17 19 ar
17 15 18 ar
18 18 26 ar
19 7 19 1
20 19 26 ar
21 14 20 ar
22 20 27 ar
23 7 21 1
24 21 23 1
25 22 27 ar
26 22 28 1
27 22 33 ar
28 9 23 1
29 9 24 1
30 24 25 1
31 11 27 ar
32 28 29 1
33 28 32 1
34 29 30 1
35 30 31 1
36 31 32 1
37 12 33 2
@<TRIPOS>SUBSTRUCTURE
1	RES1	1	GROUP	1 ****	RES
