# created with PyMOL 2.5.2
@<TRIPOS>MOLECULE
CDK6_2EUF_TargetProtein
33 37 1                 
SMALL
USER_CHARGES
@<TRIPOS>ATOM
1	  C1	34.504	27.574	59.437	C.3	1	RES1	0.000	
2	  N1	31.537	22.762	63.549	N.2	1	RES1	0.000	
3	  O1	32.595	28.747	60.269	O.2	1	RES1	0.000	
4	  C2	33.140	27.648	60.087	C.2	1	RES1	0.000	
5	  N2	30.253	20.879	62.757	N.pl3	1	RES1	0.000	
6	  C3	32.500	26.370	60.446	C.2	1	RES1	0.000	
7	  N3	27.740	16.757	59.838	N.pl3	1	RES1	0.000	
8	  C4	32.636	25.887	61.728	C.2	1	RES1	0.000	
9	  N4	26.360	14.414	58.775	N.3	1	RES1	0.000	
10	  C5	33.358	26.583	62.837	C.3	1	RES1	0.000	
11	  C6	32.025	24.559	62.010	C.2	1	RES1	0.000	
12	  C7	32.101	23.948	63.254	C.2	1	RES1	0.000	
13	  C8	30.855	22.146	62.530	C.2	1	RES1	0.000	
14	  N8	29.409	18.738	62.573	N.2	1	RES1	0.000	
15	  O8	31.644	26.141	58.301	O.2	1	RES1	0.000	
16	  C9	29.648	19.910	61.993	C.2	1	RES1	0.000	
17	  N9	30.735	22.653	61.324	N.2	1	RES1	0.000	
18	 C10	29.250	20.129	60.644	C.2	1	RES1	0.000	
19	 N10	31.189	24.405	59.723	N.2	1	RES1	0.000	
20	 C11	28.610	19.094	59.945	C.2	1	RES1	0.000	
21	 C12	28.391	17.843	60.511	C.2	1	RES1	0.000	
22	 C13	28.462	15.459	59.721	C.3	1	RES1	0.000	
23	 C14	27.858	14.566	58.628	C.3	1	RES1	0.000	
24	 C34	25.751	15.720	58.726	C.3	1	RES1	0.000	
25	 C35	26.271	16.702	59.813	C.3	1	RES1	0.000	
26	 C36	28.821	17.759	61.858	C.2	1	RES1	0.000	
27	 C37	31.302	23.847	61.056	C.2	1	RES1	0.000	
28	 C38	30.418	23.614	58.761	C.3	1	RES1	0.000	
29	 C39	31.285	22.928	57.677	C.3	1	RES1	0.000	
30	 C40	30.762	23.397	56.317	C.3	1	RES1	0.000	
31	 C41	29.335	23.793	56.600	C.3	1	RES1	0.000	
32	 C42	29.402	24.455	57.939	C.3	1	RES1	0.000	
33	 C43	31.753	25.637	59.396	C.2	1	RES1	0.000	
@<TRIPOS>BOND
1 1 4 1
2 2 12 ar
3 2 13 ar
4 3 4 2
5 4 6 1
6 5 13 1
7 5 16 1
8 6 8 ar
9 6 33 ar
10 7 25 1
11 8 10 1
12 8 11 ar
13 11 12 ar
14 13 17 ar
15 14 16 ar
16 16 18 ar
17 18 20 ar
18 19 27 ar
19 19 28 1
20 19 33 ar
21 20 21 ar
22 7 21 1
23 21 26 ar
24 7 22 1
25 22 23 1
26 9 23 1
27 9 24 1
28 24 25 1
29 14 26 ar
30 11 27 ar
31 17 27 ar
32 28 29 1
33 28 32 1
34 29 30 1
35 30 31 1
36 31 32 1
37 15 33 2
@<TRIPOS>SUBSTRUCTURE
1	RES1	1	GROUP	1 ****	RES
