# created with PyMOL 2.5.2
@<TRIPOS>MOLECULE
CDK6_2EUF_TargetProtein
33 37 1                 
SMALL
USER_CHARGES
@<TRIPOS>ATOM
1	  C1	34.353	27.855	59.512	C.3	1	RES1	0.000	
2	  N1	31.600	22.649	63.421	N.2	1	RES1	0.000	
3	  O1	32.408	28.775	60.534	O.2	1	RES1	0.000	
4	  C2	33.026	27.782	60.224	C.2	1	RES1	0.000	
5	  N2	30.327	20.833	62.711	N.pl3	1	RES1	0.000	
6	  C3	32.472	26.443	60.500	C.2	1	RES1	0.000	
7	  N3	27.637	16.661	60.007	N.pl3	1	RES1	0.000	
8	  C4	32.691	25.864	61.681	C.2	1	RES1	0.000	
9	  N4	26.489	14.436	58.520	N.3	1	RES1	0.000	
10	  C5	33.532	26.469	62.791	C.3	1	RES1	0.000	
11	  C6	32.068	24.505	61.939	C.2	1	RES1	0.000	
12	  C7	32.150	23.851	63.150	C.2	1	RES1	0.000	
13	  C8	30.914	22.073	62.413	C.2	1	RES1	0.000	
14	  O8	31.469	26.336	58.381	O.2	1	RES1	0.000	
15	  C9	29.650	19.845	61.972	C.2	1	RES1	0.000	
16	 C10	29.062	20.059	60.725	C.2	1	RES1	0.000	
17	 C11	28.421	19.044	60.108	C.2	1	RES1	0.000	
18	 N11	29.581	18.652	62.565	N.2	1	RES1	0.000	
19	 C12	28.319	17.762	60.662	C.2	1	RES1	0.000	
20	 N12	30.788	22.637	61.201	N.2	1	RES1	0.000	
21	 C13	26.871	16.892	58.761	C.3	1	RES1	0.000	
22	 N13	31.221	24.440	59.673	N.2	1	RES1	0.000	
23	 C14	25.872	15.780	58.469	C.3	1	RES1	0.000	
24	 C36	27.083	14.233	59.856	C.3	1	RES1	0.000	
25	 C37	28.151	15.283	60.222	C.3	1	RES1	0.000	
26	 C38	28.936	17.629	61.906	C.2	1	RES1	0.000	
27	 C39	31.377	23.809	60.964	C.2	1	RES1	0.000	
28	 C40	30.518	23.660	58.620	C.3	1	RES1	0.000	
29	 C41	31.423	23.097	57.519	C.3	1	RES1	0.000	
30	 C42	30.885	23.616	56.202	C.3	1	RES1	0.000	
31	 C43	29.437	23.885	56.515	C.3	1	RES1	0.000	
32	 C44	29.485	24.498	57.882	C.3	1	RES1	0.000	
33	 C45	31.685	25.712	59.421	C.2	1	RES1	0.000	
@<TRIPOS>BOND
1 1 4 1
2 2 12 ar
3 2 13 ar
4 3 4 2
5 4 6 1
6 5 13 1
7 5 15 1
8 6 8 ar
9 6 33 ar
10 7 25 1
11 8 10 1
12 8 11 ar
13 11 12 ar
14 15 16 ar
15 16 17 ar
16 17 19 ar
17 15 18 ar
18 18 26 ar
19 7 19 1
20 19 26 ar
21 13 20 ar
22 20 27 ar
23 7 21 1
24 21 23 1
25 22 27 ar
26 22 28 1
27 22 33 ar
28 9 23 1
29 9 24 1
30 24 25 1
31 11 27 ar
32 28 29 1
33 28 32 1
34 29 30 1
35 30 31 1
36 31 32 1
37 14 33 2
@<TRIPOS>SUBSTRUCTURE
1	RES1	1	GROUP	1 ****	RES
