# created with PyMOL 2.5.2
@<TRIPOS>MOLECULE
CDK6_2EUF_TargetProtein
33 37 1                 
SMALL
USER_CHARGES
@<TRIPOS>ATOM
1	  C1	34.584	27.675	59.387	C.3	1	RES1	0.000	
2	  N1	31.423	22.969	63.592	N.2	1	RES1	0.000	
3	  O1	32.519	28.683	60.013	O.2	1	RES1	0.000	
4	  C2	33.161	27.634	59.934	C.2	1	RES1	0.000	
5	  N2	30.303	20.990	62.846	N.pl3	1	RES1	0.000	
6	  C3	32.594	26.322	60.332	C.2	1	RES1	0.000	
7	  N3	27.835	16.975	59.682	N.pl3	1	RES1	0.000	
8	  C4	32.657	25.955	61.616	C.2	1	RES1	0.000	
9	  N4	26.807	14.922	57.909	N.3	1	RES1	0.000	
10	  C5	33.290	26.754	62.728	C.3	1	RES1	0.000	
11	  C6	32.048	24.638	61.980	C.2	1	RES1	0.000	
12	  C7	31.957	24.163	63.267	C.2	1	RES1	0.000	
13	  O7	32.001	25.873	58.118	O.2	1	RES1	0.000	
14	  C8	30.910	22.223	62.628	C.2	1	RES1	0.000	
15	  C9	29.699	20.045	61.992	C.2	1	RES1	0.000	
16	 C10	29.329	20.305	60.694	C.2	1	RES1	0.000	
17	 C11	28.696	19.302	59.921	C.2	1	RES1	0.000	
18	 N11	29.473	18.849	62.516	N.2	1	RES1	0.000	
19	 C12	28.451	18.051	60.451	C.2	1	RES1	0.000	
20	 N12	30.902	22.639	61.338	N.2	1	RES1	0.000	
21	 C13	28.550	15.703	59.530	C.3	1	RES1	0.000	
22	 N13	31.436	24.249	59.666	N.2	1	RES1	0.000	
23	 C14	27.605	14.582	59.070	C.3	1	RES1	0.000	
24	 C36	26.018	16.136	58.206	C.3	1	RES1	0.000	
25	 C37	26.875	17.311	58.611	C.3	1	RES1	0.000	
26	 C38	28.878	17.899	61.771	C.2	1	RES1	0.000	
27	 C39	31.438	23.832	61.025	C.2	1	RES1	0.000	
28	 C40	30.833	23.387	58.614	C.3	1	RES1	0.000	
29	 C41	29.936	24.094	57.600	C.3	1	RES1	0.000	
30	 C42	28.632	23.297	57.563	C.3	1	RES1	0.000	
31	 C43	29.048	21.933	58.021	C.3	1	RES1	0.000	
32	 C44	30.031	22.188	59.130	C.3	1	RES1	0.000	
33	 C45	31.976	25.480	59.263	C.2	1	RES1	0.000	
@<TRIPOS>BOND
1 1 4 1
2 2 12 ar
3 2 14 ar
4 3 4 2
5 4 6 1
6 5 14 1
7 5 15 1
8 6 8 ar
9 6 33 ar
10 7 25 1
11 8 10 1
12 8 11 ar
13 11 12 ar
14 15 16 ar
15 16 17 ar
16 17 19 ar
17 15 18 ar
18 18 26 ar
19 7 19 1
20 19 26 ar
21 14 20 ar
22 20 27 ar
23 7 21 1
24 21 23 1
25 22 27 ar
26 22 28 1
27 22 33 ar
28 9 23 1
29 9 24 1
30 24 25 1
31 11 27 ar
32 28 29 1
33 28 32 1
34 29 30 1
35 30 31 1
36 31 32 1
37 13 33 2
@<TRIPOS>SUBSTRUCTURE
1	RES1	1	GROUP	1 ****	RES
