# created with PyMOL 2.5.2
@<TRIPOS>MOLECULE
BRD4_6C7R_TargetProtein
35 40 1                 
SMALL
USER_CHARGES
@<TRIPOS>ATOM
1	  C1	-2.384	8.999	26.553	C.3	1	RES1	0.000	
2	  N1	-1.854	8.460	24.184	N.2	1	RES1	0.000	
3	  O1	4.887	6.920	26.771	O.2	1	RES1	0.000	
4	  C2	-2.606	8.062	25.384	C.3	1	RES1	0.000	
5	  N2	-2.503	9.041	23.155	N.2	1	RES1	0.000	
6	  C3	-1.569	9.256	22.248	C.2	1	RES1	0.000	
7	  N3	0.351	7.730	24.863	N.pl3	1	RES1	0.000	
8	  C4	-1.866	9.899	20.898	C.3	1	RES1	0.000	
9	  N4	2.521	6.848	25.352	N.2	1	RES1	0.000	
10	  C5	-2.902	11.005	20.795	C.3	1	RES1	0.000	
11	  C6	-3.213	9.668	20.239	C.3	1	RES1	0.000	
12	  O6	-3.084	5.321	21.030	O.3	1	RES1	0.000	
13	  C7	-0.292	8.774	22.701	C.2	1	RES1	0.000	
14	  O7	-2.421	2.189	17.782	O.2	1	RES1	0.000	
15	  C8	-0.497	8.276	23.948	C.2	1	RES1	0.000	
16	  C9	1.374	6.784	24.653	C.2	1	RES1	0.000	
17	  N9	3.447	4.915	24.222	N.2	1	RES1	0.000	
18	 C10	3.482	5.931	25.104	C.2	1	RES1	0.000	
19	 N10	-3.491	1.894	18.635	N.2	1	RES1	0.000	
20	 C11	4.707	6.042	25.917	C.2	1	RES1	0.000	
21	 N11	2.013	3.943	22.578	N.2	1	RES1	0.000	
22	 C32	2.310	4.893	23.557	C.2	1	RES1	0.000	
23	 C33	1.232	5.752	23.708	C.2	1	RES1	0.000	
24	 C34	0.212	5.270	22.768	C.2	1	RES1	0.000	
25	 C35	-1.081	5.675	22.426	C.2	1	RES1	0.000	
26	 C36	-1.798	4.982	21.419	C.2	1	RES1	0.000	
27	 C37	-3.808	6.308	21.816	C.3	1	RES1	0.000	
28	 C38	-1.214	3.887	20.789	C.2	1	RES1	0.000	
29	 C39	-1.936	3.125	19.773	C.2	1	RES1	0.000	
30	 C40	-1.514	2.927	18.461	C.2	1	RES1	0.000	
31	 C41	-0.291	3.366	17.708	C.3	1	RES1	0.000	
32	 C42	-3.206	2.453	19.792	C.2	1	RES1	0.000	
33	 C43	-4.144	2.298	20.947	C.3	1	RES1	0.000	
34	 C44	0.088	3.455	21.128	C.2	1	RES1	0.000	
35	 C45	0.751	4.165	22.089	C.2	1	RES1	0.000	
@<TRIPOS>BOND
1 1 4 1
2 2 4 1
3 2 5 ar
4 2 15 ar
5 3 20 2
6 5 6 ar
7 6 8 1
8 6 13 ar
9 7 15 1
10 7 16 1
11 8 10 1
12 8 11 1
13 9 16 ar
14 10 11 1
15 13 15 ar
16 9 18 ar
17 17 18 ar
18 18 20 1
19 14 19 ar
20 19 32 ar
21 21 22 ar
22 21 35 ar
23 17 22 ar
24 22 23 ar
25 16 23 ar
26 23 24 ar
27 24 25 ar
28 24 35 ar
29 25 26 ar
30 12 26 1
31 26 28 ar
32 12 27 1
33 28 29 1
34 28 34 ar
35 29 30 ar
36 29 32 ar
37 14 30 ar
38 30 31 1
39 32 33 1
40 34 35 ar
@<TRIPOS>SUBSTRUCTURE
1	RES1	1	GROUP	1 ****	RES
