# created with PyMOL 2.5.2
@<TRIPOS>MOLECULE
CDK6_2EUF_TargetProtein
33 37 1                 
SMALL
USER_CHARGES
@<TRIPOS>ATOM
1	  C1	34.740	27.560	59.484	C.3	1	RES1	0.000	
2	  N1	31.440	22.940	63.553	N.2	1	RES1	0.000	
3	  O1	32.712	28.683	60.053	O.2	1	RES1	0.000	
4	  C2	33.293	27.629	59.962	C.2	1	RES1	0.000	
5	  N2	30.260	20.998	62.782	N.pl3	1	RES1	0.000	
6	  C3	32.634	26.328	60.343	C.2	1	RES1	0.000	
7	  N3	27.823	16.926	59.696	N.pl3	1	RES1	0.000	
8	  C4	32.620	25.965	61.625	C.2	1	RES1	0.000	
9	  N4	26.852	14.760	58.028	N.3	1	RES1	0.000	
10	  C5	33.183	26.795	62.803	C.3	1	RES1	0.000	
11	  C6	32.021	24.659	61.962	C.2	1	RES1	0.000	
12	  O6	32.114	25.894	58.107	O.2	1	RES1	0.000	
13	  C7	31.969	24.142	63.287	C.2	1	RES1	0.000	
14	  C8	30.872	22.250	62.565	C.2	1	RES1	0.000	
15	  C9	29.650	20.039	61.960	C.2	1	RES1	0.000	
16	 C10	29.260	20.285	60.637	C.2	1	RES1	0.000	
17	 N10	29.453	18.816	62.494	N.2	1	RES1	0.000	
18	 C11	28.650	19.281	59.878	C.2	1	RES1	0.000	
19	 N11	30.872	22.660	61.288	N.2	1	RES1	0.000	
20	 C12	28.427	18.018	60.420	C.2	1	RES1	0.000	
21	 N12	31.423	24.296	59.619	N.2	1	RES1	0.000	
22	 C13	28.601	15.648	59.573	C.3	1	RES1	0.000	
23	 C14	27.720	14.488	59.178	C.3	1	RES1	0.000	
24	 C37	25.999	15.938	58.294	C.3	1	RES1	0.000	
25	 C38	26.846	17.204	58.653	C.3	1	RES1	0.000	
26	 C39	28.864	17.860	61.749	C.2	1	RES1	0.000	
27	 C40	31.421	23.874	61.001	C.2	1	RES1	0.000	
28	 C41	30.783	23.479	58.566	C.3	1	RES1	0.000	
29	 C42	29.912	24.220	57.576	C.3	1	RES1	0.000	
30	 C43	28.587	23.483	57.510	C.3	1	RES1	0.000	
31	 C44	28.913	22.100	58.017	C.3	1	RES1	0.000	
32	 C45	29.945	22.336	59.094	C.3	1	RES1	0.000	
33	 C46	32.044	25.511	59.268	C.2	1	RES1	0.000	
@<TRIPOS>BOND
1 1 4 1
2 2 13 ar
3 2 14 ar
4 3 4 2
5 4 6 1
6 5 14 1
7 5 15 1
8 6 8 ar
9 6 33 ar
10 7 25 1
11 8 10 1
12 8 11 ar
13 11 13 ar
14 15 16 ar
15 16 18 ar
16 15 17 ar
17 17 26 ar
18 18 20 ar
19 14 19 ar
20 19 27 ar
21 7 20 1
22 20 26 ar
23 21 27 ar
24 21 28 1
25 21 33 ar
26 7 22 1
27 22 23 1
28 9 23 1
29 9 24 1
30 24 25 1
31 11 27 ar
32 28 29 1
33 28 32 1
34 29 30 1
35 30 31 1
36 31 32 1
37 12 33 2
@<TRIPOS>SUBSTRUCTURE
1	RES1	1	GROUP	1 ****	RES
