# created with PyMOL 2.5.2
@<TRIPOS>MOLECULE
CDK6_2EUF_TargetProtein
33 37 1                 
SMALL
USER_CHARGES
@<TRIPOS>ATOM
1	  C1	34.578	27.789	59.493	C.3	1	RES1	0.000	
2	  N1	31.475	22.897	63.513	N.2	1	RES1	0.000	
3	  O1	32.517	28.769	60.166	O.2	1	RES1	0.000	
4	  C2	33.186	27.730	60.033	C.2	1	RES1	0.000	
5	  N2	30.344	20.956	62.693	N.pl3	1	RES1	0.000	
6	  C3	32.607	26.407	60.375	C.2	1	RES1	0.000	
7	  N3	27.896	16.840	59.632	N.pl3	1	RES1	0.000	
8	  C4	32.671	25.974	61.647	C.2	1	RES1	0.000	
9	  N4	26.367	14.759	58.356	N.3	1	RES1	0.000	
10	  C5	33.339	26.730	62.804	C.3	1	RES1	0.000	
11	  C6	32.052	24.651	61.972	C.2	1	RES1	0.000	
12	  O6	31.976	26.073	58.159	O.2	1	RES1	0.000	
13	  C7	32.032	24.089	63.236	C.2	1	RES1	0.000	
14	  C8	30.923	22.201	62.489	C.2	1	RES1	0.000	
15	  C9	29.738	19.989	61.885	C.2	1	RES1	0.000	
16	 C10	29.214	20.274	60.600	C.2	1	RES1	0.000	
17	 N10	29.638	18.769	62.377	N.2	1	RES1	0.000	
18	 C11	28.603	19.264	59.876	C.2	1	RES1	0.000	
19	 N11	30.933	22.667	61.247	N.2	1	RES1	0.000	
20	 C12	28.530	17.958	60.369	C.2	1	RES1	0.000	
21	 N12	31.434	24.371	59.641	N.2	1	RES1	0.000	
22	 C13	27.158	17.147	58.404	C.3	1	RES1	0.000	
23	 C14	26.924	15.876	57.572	C.3	1	RES1	0.000	
24	 C38	27.255	14.449	59.502	C.3	1	RES1	0.000	
25	 C39	27.484	15.642	60.386	C.3	1	RES1	0.000	
26	 C40	29.084	17.783	61.644	C.2	1	RES1	0.000	
27	 C41	31.458	23.864	60.984	C.2	1	RES1	0.000	
28	 C42	30.829	23.542	58.567	C.3	1	RES1	0.000	
29	 C43	29.883	24.262	57.611	C.3	1	RES1	0.000	
30	 C44	28.615	23.422	57.539	C.3	1	RES1	0.000	
31	 C45	29.075	22.042	57.924	C.3	1	RES1	0.000	
32	 C46	30.095	22.298	59.035	C.3	1	RES1	0.000	
33	 C47	31.988	25.580	59.296	C.2	1	RES1	0.000	
@<TRIPOS>BOND
1 1 4 1
2 2 13 ar
3 2 14 ar
4 3 4 2
5 4 6 1
6 5 14 1
7 5 15 1
8 6 8 ar
9 6 33 ar
10 7 25 1
11 8 10 1
12 8 11 ar
13 11 13 ar
14 15 16 ar
15 16 18 ar
16 15 17 ar
17 17 26 ar
18 18 20 ar
19 14 19 ar
20 19 27 ar
21 7 20 1
22 20 26 ar
23 21 27 ar
24 21 28 1
25 21 33 ar
26 7 22 1
27 22 23 1
28 9 23 1
29 9 24 1
30 24 25 1
31 11 27 ar
32 28 29 1
33 28 32 1
34 29 30 1
35 30 31 1
36 31 32 1
37 12 33 2
@<TRIPOS>SUBSTRUCTURE
1	RES1	1	GROUP	1 ****	RES
