# created with PyMOL 2.5.2
@<TRIPOS>MOLECULE
BRD4_4F3I_TargetProtein
29 32 1                 
SMALL
USER_CHARGES
@<TRIPOS>ATOM
1	 CL1	30.153	48.915	-7.029	Cl	1	RES1	0.000	
2	  C1	22.238	54.520	-5.123	C.3	1	RES1	0.000	
3	  N1	25.336	51.086	-2.927	N.2	1	RES1	0.000	
4	  O1	22.189	53.356	-4.314	O.3	1	RES1	0.000	
5	  S1	27.435	50.564	1.324	S.2	1	RES1	0.000	
6	  C2	23.274	53.155	-3.502	C.2	1	RES1	0.000	
7	  O2	24.258	53.886	-3.445	O.co2	1	RES1	0.000	
8	  C3	23.079	51.922	-2.643	C.3	1	RES1	0.000	
9	  O3	30.067	51.566	2.436	O.2	1	RES1	0.000	
10	  C4	24.381	51.567	-1.907	C.3	1	RES1	0.000	
11	  C5	26.589	50.856	-2.606	C.2	1	RES1	0.000	
12	  C6	27.509	50.361	-3.681	C.2	1	RES1	0.000	
13	  N6	25.137	50.070	-0.009	N.2	1	RES1	0.000	
14	  C7	27.337	50.854	-4.993	C.2	1	RES1	0.000	
15	  N7	23.212	49.127	0.514	N.2	1	RES1	0.000	
16	  C8	28.164	50.432	-5.985	C.2	1	RES1	0.000	
17	  N8	22.990	49.934	-0.564	N.2	1	RES1	0.000	
18	  C9	29.125	49.459	-5.751	C.2	1	RES1	0.000	
19	 C10	29.290	48.938	-4.469	C.2	1	RES1	0.000	
20	 C11	28.466	49.379	-3.414	C.2	1	RES1	0.000	
21	 C12	27.136	50.974	-1.243	C.2	1	RES1	0.000	
22	 C13	26.492	50.503	-0.089	C.2	1	RES1	0.000	
23	 C14	28.695	51.380	0.471	C.2	1	RES1	0.000	
24	 C15	29.878	51.765	1.226	C.2	1	RES1	0.000	
25	 C31	28.413	51.559	-0.864	C.2	1	RES1	0.000	
26	 C32	29.302	52.309	-1.803	C.3	1	RES1	0.000	
27	 C33	24.502	49.202	0.849	C.2	1	RES1	0.000	
28	 C34	25.099	48.399	1.935	C.3	1	RES1	0.000	
29	 C35	24.135	50.502	-0.887	C.2	1	RES1	0.000	
@<TRIPOS>BOND
1 1 18 1
2 2 4 1
3 3 10 1
4 3 11 2
5 4 6 1
6 5 22 ar
7 5 23 ar
8 6 8 1
9 6 7 2
10 8 10 1
11 11 12 1
12 12 14 ar
13 14 16 ar
14 15 17 ar
15 16 18 ar
16 18 19 ar
17 19 20 ar
18 12 20 ar
19 11 21 1
20 21 22 ar
21 21 25 ar
22 13 22 1
23 23 24 1
24 23 25 ar
25 9 24 2
26 25 26 1
27 13 27 ar
28 15 27 ar
29 27 28 1
30 10 29 1
31 13 29 ar
32 17 29 ar
@<TRIPOS>SUBSTRUCTURE
1	RES1	1	GROUP	1 ****	RES
