# created with PyMOL 2.5.2
@<TRIPOS>MOLECULE
ALK_4MKC_TargetProtein
38 41 1                 
SMALL
USER_CHARGES
@<TRIPOS>ATOM
1	 CL1	-21.143	15.006	-10.535	Cl	1	RES1	0.000	
2	  C1	-20.221	6.789	-7.559	C.3	1	RES1	0.000	
3	  N1	-23.703	9.999	-8.991	N.pl3	1	RES1	0.000	
4	  O1	-15.798	14.082	-7.827	O.2	1	RES1	0.000	
5	  S1	-17.030	13.673	-8.480	S.O2	1	RES1	0.000	
6	  C2	-21.691	7.189	-7.535	C.2	1	RES1	0.000	
7	  N2	-23.637	11.890	-10.279	N.2	1	RES1	0.000	
8	  O2	-17.938	14.675	-9.007	O.2	1	RES1	0.000	
9	  C3	-22.029	8.308	-8.234	C.2	1	RES1	0.000	
10	  N3	-20.115	13.100	-8.384	N.pl3	1	RES1	0.000	
11	  O3	-25.634	8.635	-7.655	O.3	1	RES1	0.000	
12	  C4	-23.358	8.798	-8.274	C.2	1	RES1	0.000	
13	  N4	-21.903	11.551	-8.716	N.2	1	RES1	0.000	
14	  C5	-23.049	11.155	-9.363	C.2	1	RES1	0.000	
15	  N5	-21.439	3.614	-3.739	N.3	1	RES1	0.000	
16	  C6	-23.044	13.051	-10.639	C.2	1	RES1	0.000	
17	  C7	-21.876	13.508	-10.031	C.2	1	RES1	0.000	
18	  C8	-21.313	12.685	-9.039	C.2	1	RES1	0.000	
19	  C9	-19.349	12.492	-7.351	C.2	1	RES1	0.000	
20	 C10	-19.950	11.717	-6.364	C.2	1	RES1	0.000	
21	 C11	-19.205	11.094	-5.377	C.2	1	RES1	0.000	
22	 C12	-17.824	11.245	-5.333	C.2	1	RES1	0.000	
23	 C13	-17.185	12.008	-6.311	C.2	1	RES1	0.000	
24	 C14	-17.965	12.655	-7.285	C.2	1	RES1	0.000	
25	 C15	-16.573	12.546	-9.858	C.3	1	RES1	0.000	
26	 C16	-15.403	11.630	-9.485	C.3	1	RES1	0.000	
27	 C17	-16.304	13.290	-11.132	C.3	1	RES1	0.000	
28	 C18	-24.338	8.127	-7.574	C.2	1	RES1	0.000	
29	 C19	-26.758	7.876	-7.109	C.3	1	RES1	0.000	
30	 C20	-27.074	6.692	-8.024	C.3	1	RES1	0.000	
31	 C21	-27.926	8.838	-7.045	C.3	1	RES1	0.000	
32	 C22	-23.974	6.944	-6.821	C.2	1	RES1	0.000	
33	 C23	-22.672	6.465	-6.779	C.2	1	RES1	0.000	
34	 C24	-22.434	5.216	-5.954	C.3	1	RES1	0.000	
35	 C25	-23.135	5.173	-4.569	C.3	1	RES1	0.000	
36	 C26	-22.868	3.858	-3.856	C.3	1	RES1	0.000	
37	 C48	-20.785	3.531	-5.042	C.3	1	RES1	0.000	
38	 C49	-20.968	4.812	-5.838	C.3	1	RES1	0.000	
@<TRIPOS>BOND
1 1 17 1
2 2 6 1
3 3 12 1
4 3 14 1
5 4 5 2
6 5 8 2
7 5 24 1
8 5 25 1
9 6 9 ar
10 6 33 ar
11 7 14 ar
12 7 16 ar
13 9 12 ar
14 10 18 1
15 10 19 1
16 13 14 ar
17 13 18 ar
18 16 17 ar
19 17 18 ar
20 19 20 ar
21 20 21 ar
22 21 22 ar
23 22 23 ar
24 23 24 ar
25 19 24 ar
26 25 26 1
27 25 27 1
28 11 28 1
29 12 28 ar
30 28 32 ar
31 11 29 1
32 29 30 1
33 29 31 1
34 32 33 ar
35 33 34 1
36 34 35 1
37 34 38 1
38 35 36 1
39 15 36 1
40 15 37 1
41 37 38 1
@<TRIPOS>SUBSTRUCTURE
1	RES1	1	GROUP	1 ****	RES
