# created with PyMOL 2.5.2
@<TRIPOS>MOLECULE
EGFR_5GMP_TargetProtein
40 44 1                 
SMALL
USER_CHARGES
@<TRIPOS>ATOM
1	  C1	6.557	-50.628	125.998	C.3	1	RES1	0.000	
2	  N1	4.204	-49.793	124.739	N.pl3	1	RES1	0.000	
3	  O1	3.977	-48.406	126.628	O.2	1	RES1	0.000	
4	  C2	6.079	-49.388	126.150	C.3	1	RES1	0.000	
5	  N2	0.281	-51.583	122.266	N.2	1	RES1	0.000	
6	  O2	1.317	-51.026	120.231	O.2	1	RES1	0.000	
7	  C3	4.620	-49.117	125.893	C.2	1	RES1	0.000	
8	  N3	-2.338	-54.067	124.363	N.2	1	RES1	0.000	
9	  O3	3.016	-46.783	133.404	O.2	1	RES1	0.000	
10	  C4	2.878	-49.707	124.178	C.2	1	RES1	0.000	
11	  N4	-1.807	-52.984	126.339	N.pl3	1	RES1	0.000	
12	  C5	2.158	-48.537	124.499	C.2	1	RES1	0.000	
13	  N5	0.024	-49.356	130.362	N.pl3	1	RES1	0.000	
14	  C6	0.840	-48.374	124.072	C.2	1	RES1	0.000	
15	  N6	1.097	-47.622	132.321	N.pl3	1	RES1	0.000	
16	  C7	0.216	-49.381	123.353	C.2	1	RES1	0.000	
17	  C8	0.935	-50.549	123.005	C.2	1	RES1	0.000	
18	  C9	0.536	-51.710	120.886	C.2	1	RES1	0.000	
19	  O9	-3.249	-52.676	128.630	O.3	1	RES1	0.000	
20	 C10	-0.204	-52.799	120.189	C.2	1	RES1	0.000	
21	 N10	-0.849	-52.225	124.276	N.2	1	RES1	0.000	
22	 C11	-1.051	-53.620	120.814	C.2	1	RES1	0.000	
23	 C12	-1.796	-54.713	120.058	C.3	1	RES1	0.000	
24	 C13	-1.286	-53.422	122.269	C.2	1	RES1	0.000	
25	 C14	-2.162	-54.212	123.036	C.2	1	RES1	0.000	
26	 C15	-1.666	-53.054	124.965	C.2	1	RES1	0.000	
27	 C16	-1.381	-52.015	127.289	C.2	1	RES1	0.000	
28	 C17	-0.253	-51.243	127.130	C.2	1	RES1	0.000	
29	 C18	0.214	-50.385	128.129	C.2	1	RES1	0.000	
30	 C19	-0.490	-50.248	129.367	C.2	1	RES1	0.000	
31	 C20	1.449	-48.926	130.246	C.3	1	RES1	0.000	
32	 C21	1.678	-47.601	130.945	C.3	1	RES1	0.000	
33	 C22	1.834	-47.214	133.424	C.2	1	RES1	0.000	
34	 C47	-0.275	-48.034	132.403	C.3	1	RES1	0.000	
35	 C48	-0.548	-49.328	131.720	C.3	1	RES1	0.000	
36	 C49	-1.628	-51.015	129.507	C.2	1	RES1	0.000	
37	 C50	-2.093	-51.906	128.484	C.2	1	RES1	0.000	
38	 C51	-3.902	-52.708	129.886	C.3	1	RES1	0.000	
39	 C52	-0.638	-52.402	122.950	C.2	1	RES1	0.000	
40	 C53	2.270	-50.689	123.416	C.2	1	RES1	0.000	
@<TRIPOS>BOND
1 1 4 1
2 2 7 1
3 2 10 1
4 3 7 2
5 4 7 1
6 5 17 1
7 5 18 ar
8 5 39 ar
9 6 18 2
10 10 12 ar
11 10 40 ar
12 12 14 ar
13 14 16 ar
14 16 17 ar
15 18 20 ar
16 20 22 ar
17 21 26 ar
18 21 39 ar
19 22 23 1
20 22 24 ar
21 24 25 ar
22 24 39 ar
23 8 25 ar
24 8 26 ar
25 11 26 1
26 11 27 1
27 27 28 ar
28 27 37 ar
29 28 29 ar
30 29 30 ar
31 13 30 1
32 30 36 ar
33 13 31 1
34 31 32 1
35 15 32 1
36 9 33 2
37 15 33 1
38 15 34 1
39 34 35 1
40 13 35 1
41 36 37 ar
42 19 37 1
43 19 38 1
44 17 40 ar
@<TRIPOS>SUBSTRUCTURE
1	RES1	1	GROUP	1 ****	RES
