# created with PyMOL 2.5.2
@<TRIPOS>MOLECULE
EGFR_5GMP_TargetProtein
40 44 1                 
SMALL
USER_CHARGES
@<TRIPOS>ATOM
1	  C1	6.540	-51.062	125.685	C.3	1	RES1	0.000	
2	  N1	4.194	-49.852	124.570	N.pl3	1	RES1	0.000	
3	  O1	4.326	-48.474	126.459	O.2	1	RES1	0.000	
4	  C2	6.221	-49.757	125.808	C.3	1	RES1	0.000	
5	  N2	0.259	-51.505	122.256	N.2	1	RES1	0.000	
6	  O2	1.157	-50.866	120.205	O.2	1	RES1	0.000	
7	  C3	4.810	-49.269	125.661	C.2	1	RES1	0.000	
8	  N3	-2.203	-54.114	124.378	N.2	1	RES1	0.000	
9	  O3	2.464	-46.620	133.937	O.2	1	RES1	0.000	
10	  C4	2.827	-49.597	124.175	C.2	1	RES1	0.000	
11	  N4	-1.709	-53.008	126.359	N.pl3	1	RES1	0.000	
12	  C5	2.114	-48.464	124.480	C.2	1	RES1	0.000	
13	  N5	-0.006	-49.345	130.422	N.pl3	1	RES1	0.000	
14	  C6	0.786	-48.325	124.058	C.2	1	RES1	0.000	
15	  N6	0.898	-47.570	132.511	N.pl3	1	RES1	0.000	
16	  C7	0.168	-49.319	123.319	C.2	1	RES1	0.000	
17	  C8	0.899	-50.487	122.996	C.2	1	RES1	0.000	
18	  C9	0.462	-51.612	120.863	C.2	1	RES1	0.000	
19	  O9	-3.148	-52.772	128.632	O.3	1	RES1	0.000	
20	 C10	-0.255	-52.708	120.166	C.2	1	RES1	0.000	
21	 N10	-0.766	-52.231	124.292	N.2	1	RES1	0.000	
22	 C11	-1.071	-53.584	120.823	C.2	1	RES1	0.000	
23	 C12	-1.795	-54.682	120.088	C.3	1	RES1	0.000	
24	 C13	-1.254	-53.430	122.262	C.2	1	RES1	0.000	
25	 C14	-2.041	-54.226	123.059	C.2	1	RES1	0.000	
26	 C15	-1.549	-53.093	124.979	C.2	1	RES1	0.000	
27	 C16	-1.279	-52.070	127.343	C.2	1	RES1	0.000	
28	 C17	-0.152	-51.254	127.207	C.2	1	RES1	0.000	
29	 C18	0.253	-50.410	128.186	C.2	1	RES1	0.000	
30	 C19	-0.438	-50.247	129.412	C.2	1	RES1	0.000	
31	 C20	-0.909	-48.948	131.529	C.3	1	RES1	0.000	
32	 C21	-0.539	-47.597	132.094	C.3	1	RES1	0.000	
33	 C22	1.308	-46.708	133.508	C.2	1	RES1	0.000	
34	 C47	1.823	-48.437	131.815	C.3	1	RES1	0.000	
35	 C48	1.370	-48.794	130.435	C.3	1	RES1	0.000	
36	 C49	-1.585	-51.067	129.555	C.2	1	RES1	0.000	
37	 C50	-2.014	-51.933	128.536	C.2	1	RES1	0.000	
38	 C51	-3.793	-52.811	129.934	C.3	1	RES1	0.000	
39	 C52	-0.600	-52.406	122.993	C.2	1	RES1	0.000	
40	 C53	2.235	-50.634	123.389	C.2	1	RES1	0.000	
@<TRIPOS>BOND
1 1 4 1
2 2 7 1
3 2 10 1
4 3 7 2
5 4 7 1
6 5 17 1
7 5 18 ar
8 5 39 ar
9 6 18 2
10 10 12 ar
11 10 40 ar
12 12 14 ar
13 14 16 ar
14 16 17 ar
15 18 20 ar
16 20 22 ar
17 21 26 ar
18 21 39 ar
19 22 23 1
20 22 24 ar
21 24 25 ar
22 24 39 ar
23 8 25 ar
24 8 26 ar
25 11 26 1
26 11 27 1
27 27 28 ar
28 27 37 ar
29 28 29 ar
30 29 30 ar
31 13 30 1
32 30 36 ar
33 13 31 1
34 31 32 1
35 15 32 1
36 9 33 2
37 15 33 1
38 15 34 1
39 34 35 1
40 13 35 1
41 36 37 ar
42 19 37 1
43 19 38 1
44 17 40 ar
@<TRIPOS>SUBSTRUCTURE
1	RES1	1	GROUP	1 ****	RES
