# created with PyMOL 2.5.2
@<TRIPOS>MOLECULE
CDK2_2VU3_TargetProtein
25 27 1                 
SMALL
USER_CHARGES
@<TRIPOS>ATOM
1	 CL1	22.442	5.948	62.360	Cl	1	RES1	0.000	
2	 CL2	27.248	7.057	59.936	Cl	1	RES1	0.000	
3	  N4	33.098	8.378	65.926	N.3	1	RES1	0.000	
4	  N5	29.598	7.261	65.503	N.pl3	1	RES1	0.000	
5	  N6	26.285	6.033	62.921	N.pl3	1	RES1	0.000	
6	  N7	27.801	3.495	65.037	N.2	1	RES1	0.000	
7	  N8	28.396	4.657	65.363	N.2	1	RES1	0.000	
8	  O8	27.787	8.043	64.340	O.2	1	RES1	0.000	
9	  O9	25.233	4.347	61.659	O.2	1	RES1	0.000	
10	 C20	32.234	7.910	67.034	C.3	1	RES1	0.000	
11	 C21	30.913	8.668	67.059	C.3	1	RES1	0.000	
12	 C22	30.178	8.599	65.727	C.3	1	RES1	0.000	
13	 C23	28.417	7.121	64.811	C.2	1	RES1	0.000	
14	 C24	27.956	5.733	64.670	C.2	1	RES1	0.000	
15	 C25	26.992	5.260	63.818	C.2	1	RES1	0.000	
16	 C26	25.456	5.549	61.926	C.2	1	RES1	0.000	
17	 C27	24.785	6.582	61.108	C.2	1	RES1	0.000	
18	 C28	23.438	6.818	61.237	C.2	1	RES1	0.000	
19	 C29	22.822	7.800	60.476	C.2	1	RES1	0.000	
20	 C30	23.568	8.532	59.563	C.2	1	RES1	0.000	
21	 C31	24.920	8.297	59.408	C.2	1	RES1	0.000	
22	 C32	25.567	7.322	60.190	C.2	1	RES1	0.000	
23	 C33	26.930	3.862	64.071	C.2	1	RES1	0.000	
24	 C34	31.098	8.991	64.591	C.3	1	RES1	0.000	
25	 C35	32.449	8.205	64.634	C.3	1	RES1	0.000	
@<TRIPOS>BOND
1 1 18 1
2 2 22 1
3 6 7 ar
4 3 10 1
5 10 11 1
6 11 12 1
7 4 12 1
8 12 24 1
9 4 13 1
10 8 13 2
11 13 14 1
12 7 14 ar
13 14 15 ar
14 5 15 1
15 15 23 ar
16 5 16 1
17 9 16 2
18 16 17 1
19 17 18 ar
20 17 22 ar
21 18 19 ar
22 19 20 ar
23 20 21 ar
24 21 22 ar
25 6 23 ar
26 24 25 1
27 3 25 1
@<TRIPOS>SUBSTRUCTURE
1	RES1	1	GROUP	1 ****	RES
