# created with PyMOL 2.5.2
@<TRIPOS>MOLECULE
CDK2_2VU3_TargetProtein
25 27 1                 
SMALL
USER_CHARGES
@<TRIPOS>ATOM
1	 CL1	22.412	6.280	62.383	Cl	1	RES1	0.000	
2	 CL2	27.388	7.014	60.164	Cl	1	RES1	0.000	
3	  N4	32.032	10.011	65.223	N.3	1	RES1	0.000	
4	  N5	29.920	6.345	65.582	N.pl3	1	RES1	0.000	
5	  N6	26.274	5.982	63.004	N.pl3	1	RES1	0.000	
6	  N7	27.428	3.138	64.964	N.2	1	RES1	0.000	
7	  N8	28.204	4.176	65.337	N.2	1	RES1	0.000	
8	  O8	28.377	7.638	64.521	O.2	1	RES1	0.000	
9	  O9	24.992	4.456	61.735	O.2	1	RES1	0.000	
10	 C22	32.751	8.767	64.991	C.3	1	RES1	0.000	
11	 C23	31.843	7.570	64.754	C.3	1	RES1	0.000	
12	 C24	30.872	7.424	65.889	C.3	1	RES1	0.000	
13	 C25	28.745	6.526	64.900	C.2	1	RES1	0.000	
14	 C26	27.972	5.346	64.670	C.2	1	RES1	0.000	
15	 C27	26.925	5.070	63.826	C.2	1	RES1	0.000	
16	 C28	25.386	5.599	62.001	C.2	1	RES1	0.000	
17	 C29	24.846	6.732	61.215	C.2	1	RES1	0.000	
18	 C30	23.521	7.099	61.327	C.2	1	RES1	0.000	
19	 C31	23.021	8.179	60.582	C.2	1	RES1	0.000	
20	 C32	23.867	8.871	59.739	C.2	1	RES1	0.000	
21	 C33	25.209	8.501	59.604	C.2	1	RES1	0.000	
22	 C34	25.699	7.429	60.349	C.2	1	RES1	0.000	
23	 C35	26.631	3.711	64.021	C.2	1	RES1	0.000	
24	 C36	30.160	8.729	66.196	C.3	1	RES1	0.000	
25	 C37	31.137	9.874	66.391	C.3	1	RES1	0.000	
@<TRIPOS>BOND
1 1 18 1
2 2 22 1
3 6 7 ar
4 3 10 1
5 10 11 1
6 11 12 1
7 4 12 1
8 12 24 1
9 4 13 1
10 8 13 2
11 13 14 1
12 7 14 ar
13 14 15 ar
14 5 15 1
15 15 23 ar
16 5 16 1
17 9 16 2
18 16 17 1
19 17 18 ar
20 17 22 ar
21 18 19 ar
22 19 20 ar
23 20 21 ar
24 21 22 ar
25 6 23 ar
26 24 25 1
27 3 25 1
@<TRIPOS>SUBSTRUCTURE
1	RES1	1	GROUP	1 ****	RES
