# created with PyMOL 2.5.2
@<TRIPOS>MOLECULE
CDK2_2VU3_TargetProtein
25 27 1                 
SMALL
USER_CHARGES
@<TRIPOS>ATOM
1	 CL1	27.274	7.132	60.028	Cl	1	RES1	0.000	
2	 CL2	22.410	5.865	62.278	Cl	1	RES1	0.000	
3	  N1	33.094	8.351	65.906	N.3	1	RES1	0.000	
4	  N2	29.609	7.281	65.507	N.pl3	1	RES1	0.000	
5	  N3	26.271	6.039	62.925	N.pl3	1	RES1	0.000	
6	  O3	27.797	8.059	64.344	O.2	1	RES1	0.000	
7	  N4	27.777	3.481	65.045	N.2	1	RES1	0.000	
8	  O4	25.215	4.367	61.657	O.2	1	RES1	0.000	
9	  C5	32.273	7.909	67.023	C.3	1	RES1	0.000	
10	  N5	28.378	4.645	65.384	N.2	1	RES1	0.000	
11	  C6	30.931	8.662	67.054	C.3	1	RES1	0.000	
12	  C7	30.206	8.606	65.729	C.3	1	RES1	0.000	
13	  C8	28.412	7.124	64.810	C.2	1	RES1	0.000	
14	  C9	27.961	5.758	64.672	C.2	1	RES1	0.000	
15	 C10	26.981	5.250	63.820	C.2	1	RES1	0.000	
16	 C11	25.434	5.530	61.942	C.2	1	RES1	0.000	
17	 C12	24.811	6.576	61.123	C.2	1	RES1	0.000	
18	 C13	25.558	7.349	60.214	C.2	1	RES1	0.000	
19	 C14	24.928	8.326	59.454	C.2	1	RES1	0.000	
20	 C15	23.552	8.547	59.544	C.2	1	RES1	0.000	
21	 C16	22.821	7.768	60.431	C.2	1	RES1	0.000	
22	 C17	23.419	6.781	61.205	C.2	1	RES1	0.000	
23	 C18	26.935	3.877	64.083	C.2	1	RES1	0.000	
24	 C19	31.134	8.979	64.577	C.3	1	RES1	0.000	
25	 C20	32.433	8.205	64.614	C.3	1	RES1	0.000	
@<TRIPOS>BOND
1 1 18 1
2 2 22 1
3 3 9 1
4 3 25 1
5 4 12 1
6 4 13 1
7 6 13 2
8 7 10 ar
9 9 11 1
10 10 14 ar
11 11 12 1
12 13 14 1
13 5 15 1
14 14 15 ar
15 15 23 ar
16 5 16 1
17 8 16 2
18 16 17 1
19 17 18 ar
20 17 22 ar
21 18 19 ar
22 19 20 ar
23 20 21 ar
24 21 22 ar
25 7 23 ar
26 12 24 1
27 24 25 1
@<TRIPOS>SUBSTRUCTURE
1	RES1	1	GROUP	1 ****	RES
