# created with PyMOL 2.5.2
@<TRIPOS>MOLECULE
BRD2_4ALH_TargetProtein
35 40 1                 
SMALL
USER_CHARGES
@<TRIPOS>ATOM
1	  C1	-3.306	6.802	25.355	C.3	1	RES1	0.000	
2	  N1	-1.838	8.436	24.220	N.2	1	RES1	0.000	
3	  O1	4.943	6.923	26.713	O.2	1	RES1	0.000	
4	  C2	-2.540	8.104	25.460	C.3	1	RES1	0.000	
5	  N2	-2.536	8.976	23.188	N.2	1	RES1	0.000	
6	  C3	-1.607	9.182	22.256	C.2	1	RES1	0.000	
7	  N3	0.376	7.735	24.864	N.pl3	1	RES1	0.000	
8	  C4	-1.962	9.767	20.885	C.3	1	RES1	0.000	
9	  N4	2.541	6.827	25.333	N.2	1	RES1	0.000	
10	  C5	-3.015	10.836	20.764	C.3	1	RES1	0.000	
11	  C6	-3.327	9.476	20.294	C.3	1	RES1	0.000	
12	  O6	-3.036	5.430	20.944	O.3	1	RES1	0.000	
13	  C7	-0.330	8.769	22.664	C.2	1	RES1	0.000	
14	  O7	-2.430	2.201	17.806	O.2	1	RES1	0.000	
15	  C8	-0.495	8.300	23.945	C.2	1	RES1	0.000	
16	  C9	1.381	6.790	24.636	C.2	1	RES1	0.000	
17	  N9	3.463	4.887	24.255	N.2	1	RES1	0.000	
18	 C10	3.500	5.921	25.129	C.2	1	RES1	0.000	
19	 N10	-3.518	1.975	18.610	N.2	1	RES1	0.000	
20	 C11	4.750	6.027	25.912	C.2	1	RES1	0.000	
21	 N11	2.001	3.933	22.643	N.2	1	RES1	0.000	
22	 C31	2.298	4.856	23.591	C.2	1	RES1	0.000	
23	 C32	1.223	5.744	23.705	C.2	1	RES1	0.000	
24	 C33	0.215	5.288	22.756	C.2	1	RES1	0.000	
25	 C34	-1.020	5.747	22.375	C.2	1	RES1	0.000	
26	 C35	-1.755	5.027	21.398	C.2	1	RES1	0.000	
27	 C36	-3.682	6.499	21.668	C.3	1	RES1	0.000	
28	 C37	-1.187	3.879	20.789	C.2	1	RES1	0.000	
29	 C38	-1.926	3.146	19.766	C.2	1	RES1	0.000	
30	 C39	-1.503	2.931	18.494	C.2	1	RES1	0.000	
31	 C40	-0.260	3.273	17.731	C.3	1	RES1	0.000	
32	 C41	-3.235	2.537	19.801	C.2	1	RES1	0.000	
33	 C42	-4.174	2.472	20.918	C.3	1	RES1	0.000	
34	 C43	0.069	3.458	21.139	C.2	1	RES1	0.000	
35	 C44	0.753	4.165	22.127	C.2	1	RES1	0.000	
@<TRIPOS>BOND
1 1 4 1
2 2 4 1
3 2 5 ar
4 2 15 ar
5 3 20 2
6 5 6 ar
7 6 8 1
8 6 13 ar
9 7 15 1
10 7 16 1
11 8 10 1
12 8 11 1
13 9 16 ar
14 10 11 1
15 13 15 ar
16 9 18 ar
17 17 18 ar
18 18 20 1
19 14 19 ar
20 19 32 ar
21 21 22 ar
22 21 35 ar
23 17 22 ar
24 22 23 ar
25 16 23 ar
26 23 24 ar
27 24 25 ar
28 24 35 ar
29 25 26 ar
30 12 26 1
31 26 28 ar
32 12 27 1
33 28 29 1
34 28 34 ar
35 29 30 ar
36 29 32 ar
37 14 30 ar
38 30 31 1
39 32 33 1
40 34 35 ar
@<TRIPOS>SUBSTRUCTURE
1	RES1	1	GROUP	1 ****	RES
