# created with PyMOL 2.5.2
@<TRIPOS>MOLECULE
CDK2_2VU3_TargetProtein
25 27 1                 
SMALL
USER_CHARGES
@<TRIPOS>ATOM
1	 CL1	27.608	7.150	60.247	Cl	1	RES1	0.000	
2	 CL2	22.642	6.429	62.472	Cl	1	RES1	0.000	
3	  N1	30.747	9.574	64.297	N.3	1	RES1	0.000	
4	  N2	30.080	6.292	65.814	N.3	1	RES1	0.000	
5	  N3	26.524	6.063	63.068	N.pl3	1	RES1	0.000	
6	  O3	28.554	7.641	64.799	O.3	1	RES1	0.000	
7	  N4	27.533	3.157	64.977	N.2	1	RES1	0.000	
8	  O4	25.156	4.599	61.852	O.2	1	RES1	0.000	
9	  C5	31.410	8.349	63.892	C.3	1	RES1	0.000	
10	  N5	28.361	4.138	65.358	N.2	1	RES1	0.000	
11	  C6	32.042	7.625	65.090	C.3	1	RES1	0.000	
12	  C7	31.006	7.373	66.220	C.3	1	RES1	0.000	
13	  C8	28.908	6.532	65.127	C.3	1	RES1	0.000	
14	  C9	28.141	5.357	64.794	C.2	1	RES1	0.000	
15	 C10	27.076	5.136	63.956	C.2	1	RES1	0.000	
16	 C11	25.594	5.724	62.084	C.2	1	RES1	0.000	
17	 C12	25.081	6.846	61.316	C.2	1	RES1	0.000	
18	 C13	25.951	7.548	60.445	C.2	1	RES1	0.000	
19	 C14	25.464	8.640	59.715	C.2	1	RES1	0.000	
20	 C15	24.133	9.039	59.845	C.2	1	RES1	0.000	
21	 C16	23.250	8.327	60.674	C.2	1	RES1	0.000	
22	 C17	23.728	7.232	61.403	C.2	1	RES1	0.000	
23	 C18	26.719	3.760	64.099	C.2	1	RES1	0.000	
24	 C19	30.228	8.640	66.536	C.3	1	RES1	0.000	
25	 C20	29.676	9.294	65.291	C.3	1	RES1	0.000	
@<TRIPOS>BOND
1 1 18 1
2 2 22 1
3 3 9 1
4 3 25 1
5 4 12 1
6 4 13 1
7 6 13 1
8 7 10 ar
9 9 11 1
10 10 14 ar
11 11 12 1
12 13 14 1
13 5 15 1
14 14 15 ar
15 15 23 ar
16 5 16 1
17 8 16 2
18 16 17 1
19 17 18 ar
20 17 22 ar
21 18 19 ar
22 19 20 ar
23 20 21 ar
24 21 22 ar
25 7 23 ar
26 12 24 1
27 24 25 1
@<TRIPOS>SUBSTRUCTURE
1	RES1	1	GROUP	1 ****	RES
