# created with PyMOL 2.5.2
@<TRIPOS>MOLECULE
CDK2_2VU3_TargetProtein
25 27 1                 
SMALL
USER_CHARGES
@<TRIPOS>ATOM
1	 CL1	27.355	7.035	60.169	Cl	1	RES1	0.000	
2	 CL2	22.388	6.223	62.358	Cl	1	RES1	0.000	
3	  N1	32.067	9.976	65.330	N.3	1	RES1	0.000	
4	  N2	29.950	6.333	65.553	N.pl3	1	RES1	0.000	
5	  N3	26.251	6.001	62.992	N.pl3	1	RES1	0.000	
6	  O3	28.422	7.703	64.510	O.2	1	RES1	0.000	
7	  N4	27.417	3.207	64.965	N.2	1	RES1	0.000	
8	  O4	24.994	4.471	61.750	O.2	1	RES1	0.000	
9	  C5	32.861	8.754	65.065	C.3	1	RES1	0.000	
10	  N5	28.223	4.245	65.327	N.2	1	RES1	0.000	
11	  C6	31.913	7.573	64.760	C.3	1	RES1	0.000	
12	  C7	30.904	7.382	65.894	C.3	1	RES1	0.000	
13	  C8	28.764	6.582	64.856	C.2	1	RES1	0.000	
14	  C9	27.977	5.416	64.622	C.2	1	RES1	0.000	
15	 C10	26.928	5.096	63.800	C.2	1	RES1	0.000	
16	 C11	25.363	5.576	62.022	C.2	1	RES1	0.000	
17	 C12	24.819	6.726	61.226	C.2	1	RES1	0.000	
18	 C13	25.665	7.442	60.347	C.2	1	RES1	0.000	
19	 C14	25.169	8.490	59.601	C.2	1	RES1	0.000	
20	 C15	23.804	8.816	59.708	C.2	1	RES1	0.000	
21	 C16	22.959	8.102	60.526	C.2	1	RES1	0.000	
22	 C17	23.469	7.069	61.289	C.2	1	RES1	0.000	
23	 C18	26.624	3.731	64.053	C.2	1	RES1	0.000	
24	 C19	30.181	8.694	66.197	C.3	1	RES1	0.000	
25	 C20	31.147	9.825	66.449	C.3	1	RES1	0.000	
@<TRIPOS>BOND
1 1 18 1
2 2 22 1
3 3 9 1
4 3 25 1
5 4 12 1
6 4 13 1
7 6 13 2
8 7 10 ar
9 9 11 1
10 10 14 ar
11 11 12 1
12 13 14 1
13 5 15 1
14 14 15 ar
15 15 23 ar
16 5 16 1
17 8 16 2
18 16 17 1
19 17 18 ar
20 17 22 ar
21 18 19 ar
22 19 20 ar
23 20 21 ar
24 21 22 ar
25 7 23 ar
26 12 24 1
27 24 25 1
@<TRIPOS>SUBSTRUCTURE
1	RES1	1	GROUP	1 ****	RES
