# created with PyMOL 2.5.2
@<TRIPOS>MOLECULE
CDK2_2VU3_TargetProtein
25 27 1                 
SMALL
USER_CHARGES
@<TRIPOS>ATOM
1	 CL1	22.450	6.361	62.391	Cl	1	RES1	0.000	
2	 CL2	27.477	6.948	60.238	Cl	1	RES1	0.000	
3	  N1	31.943	10.105	65.196	N.3	1	RES1	0.000	
4	  N2	29.909	6.343	65.480	N.pl3	1	RES1	0.000	
5	  N3	26.290	5.869	63.028	N.pl3	1	RES1	0.000	
6	  O3	28.223	7.511	64.444	O.2	1	RES1	0.000	
7	  N4	27.362	3.034	65.018	N.2	1	RES1	0.000	
8	  O4	24.976	4.465	61.715	O.2	1	RES1	0.000	
9	  C5	32.696	8.923	64.873	C.3	1	RES1	0.000	
10	  N5	28.209	4.020	65.359	N.2	1	RES1	0.000	
11	  C6	31.775	7.736	64.558	C.3	1	RES1	0.000	
12	  C7	30.808	7.475	65.704	C.3	1	RES1	0.000	
13	  C8	28.664	6.468	64.834	C.2	1	RES1	0.000	
14	  C9	27.953	5.219	64.695	C.2	1	RES1	0.000	
15	 C10	26.874	4.948	63.880	C.2	1	RES1	0.000	
16	 C11	25.398	5.575	62.017	C.2	1	RES1	0.000	
17	 C12	24.928	6.737	61.285	C.2	1	RES1	0.000	
18	 C13	23.608	7.179	61.383	C.2	1	RES1	0.000	
19	 C14	23.161	8.311	60.681	C.2	1	RES1	0.000	
20	 C15	24.070	8.993	59.854	C.2	1	RES1	0.000	
21	 C16	25.383	8.553	59.718	C.2	1	RES1	0.000	
22	 C17	25.820	7.440	60.432	C.2	1	RES1	0.000	
23	 C18	26.552	3.588	64.116	C.2	1	RES1	0.000	
24	 C19	30.061	8.772	66.102	C.3	1	RES1	0.000	
25	 C20	31.023	9.889	66.367	C.3	1	RES1	0.000	
@<TRIPOS>BOND
1 1 18 1
2 2 22 1
3 3 9 1
4 3 25 1
5 4 12 1
6 4 13 1
7 6 13 2
8 7 10 ar
9 9 11 1
10 10 14 ar
11 11 12 1
12 13 14 1
13 5 15 1
14 14 15 ar
15 15 23 ar
16 5 16 1
17 8 16 2
18 16 17 1
19 17 18 ar
20 17 22 ar
21 18 19 ar
22 19 20 ar
23 20 21 ar
24 21 22 ar
25 7 23 ar
26 12 24 1
27 24 25 1
@<TRIPOS>SUBSTRUCTURE
1	RES1	1	GROUP	1 ****	RES
