# created with PyMOL 2.5.2
@<TRIPOS>MOLECULE
CDK2_2VU3_TargetProtein
25 27 1                 
SMALL
USER_CHARGES
@<TRIPOS>ATOM
1	 CL1	27.349	7.030	60.152	Cl	1	RES1	0.000	
2	 CL2	22.400	6.240	62.393	Cl	1	RES1	0.000	
3	  N1	32.052	9.989	65.289	N.3	1	RES1	0.000	
4	  N2	29.948	6.332	65.584	N.pl3	1	RES1	0.000	
5	  N3	26.251	6.007	62.981	N.pl3	1	RES1	0.000	
6	  O3	28.427	7.682	64.508	O.2	1	RES1	0.000	
7	  N4	27.412	3.182	64.967	N.2	1	RES1	0.000	
8	  O4	25.021	4.468	61.737	O.2	1	RES1	0.000	
9	  C5	32.809	8.760	65.042	C.3	1	RES1	0.000	
10	  N5	28.203	4.231	65.319	N.2	1	RES1	0.000	
11	  C6	31.910	7.573	64.753	C.3	1	RES1	0.000	
12	  C7	30.894	7.395	65.909	C.3	1	RES1	0.000	
13	  C8	28.758	6.554	64.884	C.2	1	RES1	0.000	
14	  C9	27.976	5.376	64.654	C.2	1	RES1	0.000	
15	 C10	26.929	5.089	63.812	C.2	1	RES1	0.000	
16	 C11	25.379	5.603	62.003	C.2	1	RES1	0.000	
17	 C12	24.850	6.712	61.199	C.2	1	RES1	0.000	
18	 C13	25.676	7.435	60.334	C.2	1	RES1	0.000	
19	 C14	25.178	8.480	59.588	C.2	1	RES1	0.000	
20	 C15	23.812	8.829	59.720	C.2	1	RES1	0.000	
21	 C16	22.983	8.152	60.568	C.2	1	RES1	0.000	
22	 C17	23.492	7.078	61.314	C.2	1	RES1	0.000	
23	 C18	26.618	3.724	64.047	C.2	1	RES1	0.000	
24	 C19	30.163	8.707	66.202	C.3	1	RES1	0.000	
25	 C20	31.126	9.837	66.409	C.3	1	RES1	0.000	
@<TRIPOS>BOND
1 1 18 1
2 2 22 1
3 3 9 1
4 3 25 1
5 4 12 1
6 4 13 1
7 6 13 2
8 7 10 ar
9 9 11 1
10 10 14 ar
11 11 12 1
12 13 14 1
13 5 15 1
14 14 15 ar
15 15 23 ar
16 5 16 1
17 8 16 2
18 16 17 1
19 17 18 ar
20 17 22 ar
21 18 19 ar
22 19 20 ar
23 20 21 ar
24 21 22 ar
25 7 23 ar
26 12 24 1
27 24 25 1
@<TRIPOS>SUBSTRUCTURE
1	RES1	1	GROUP	1 ****	RES
