# created with PyMOL 2.5.2
@<TRIPOS>MOLECULE
CDK2_2VU3_TargetProtein
25 27 1                 
SMALL
USER_CHARGES
@<TRIPOS>ATOM
1	 CL1	27.605	7.113	60.261	Cl	1	RES1	0.000	
2	 CL2	22.628	6.443	62.468	Cl	1	RES1	0.000	
3	  N1	30.713	9.581	64.306	N.3	1	RES1	0.000	
4	  N2	30.079	6.274	65.781	N.3	1	RES1	0.000	
5	  N3	26.498	6.047	63.080	N.pl3	1	RES1	0.000	
6	  O3	28.533	7.676	64.795	O.3	1	RES1	0.000	
7	  N4	27.580	3.177	65.009	N.2	1	RES1	0.000	
8	  O4	25.112	4.594	61.862	O.2	1	RES1	0.000	
9	  C5	31.419	8.354	63.885	C.3	1	RES1	0.000	
10	  N5	28.386	4.153	65.361	N.2	1	RES1	0.000	
11	  C6	32.030	7.617	65.091	C.3	1	RES1	0.000	
12	  C7	30.989	7.333	66.197	C.3	1	RES1	0.000	
13	  C8	28.895	6.524	65.090	C.3	1	RES1	0.000	
14	  C9	28.148	5.380	64.770	C.2	1	RES1	0.000	
15	 C10	27.080	5.128	63.935	C.2	1	RES1	0.000	
16	 C11	25.569	5.703	62.097	C.2	1	RES1	0.000	
17	 C12	25.084	6.866	61.316	C.2	1	RES1	0.000	
18	 C13	25.952	7.578	60.476	C.2	1	RES1	0.000	
19	 C14	25.488	8.649	59.709	C.2	1	RES1	0.000	
20	 C15	24.141	9.025	59.835	C.2	1	RES1	0.000	
21	 C16	23.280	8.344	60.682	C.2	1	RES1	0.000	
22	 C17	23.759	7.253	61.410	C.2	1	RES1	0.000	
23	 C18	26.766	3.727	64.108	C.2	1	RES1	0.000	
24	 C19	30.228	8.616	66.552	C.3	1	RES1	0.000	
25	 C20	29.652	9.309	65.293	C.3	1	RES1	0.000	
@<TRIPOS>BOND
1 1 18 1
2 2 22 1
3 3 9 1
4 3 25 1
5 4 12 1
6 4 13 1
7 6 13 1
8 7 10 ar
9 9 11 1
10 10 14 ar
11 11 12 1
12 13 14 1
13 5 15 1
14 14 15 ar
15 15 23 ar
16 5 16 1
17 8 16 2
18 16 17 1
19 17 18 ar
20 17 22 ar
21 18 19 ar
22 19 20 ar
23 20 21 ar
24 21 22 ar
25 7 23 ar
26 12 24 1
27 24 25 1
@<TRIPOS>SUBSTRUCTURE
1	RES1	1	GROUP	1 ****	RES
