# created with PyMOL 2.5.2
@<TRIPOS>MOLECULE
CDK2_2VU3_TargetProtein
25 27 1                 
SMALL
USER_CHARGES
@<TRIPOS>ATOM
1	 CL1	22.440	6.216	62.413	Cl	1	RES1	0.000	
2	 CL2	27.369	7.048	60.101	Cl	1	RES1	0.000	
3	  N4	32.016	9.980	65.273	N.3	1	RES1	0.000	
4	  N5	29.944	6.321	65.582	N.pl3	1	RES1	0.000	
5	  N6	26.317	5.991	62.965	N.pl3	1	RES1	0.000	
6	  N7	27.395	3.184	64.978	N.2	1	RES1	0.000	
7	  N8	28.262	4.203	65.278	N.2	1	RES1	0.000	
8	 O10	28.409	7.681	64.521	O.2	1	RES1	0.000	
9	 O11	25.001	4.449	61.744	O.2	1	RES1	0.000	
10	 C22	32.797	8.765	65.002	C.3	1	RES1	0.000	
11	 C23	31.892	7.591	64.736	C.3	1	RES1	0.000	
12	 C24	30.886	7.378	65.905	C.3	1	RES1	0.000	
13	 C25	28.747	6.575	64.908	C.2	1	RES1	0.000	
14	 C26	27.958	5.395	64.668	C.2	1	RES1	0.000	
15	 C27	26.909	5.116	63.854	C.2	1	RES1	0.000	
16	 C28	25.402	5.599	61.977	C.2	1	RES1	0.000	
17	 C29	24.863	6.709	61.185	C.2	1	RES1	0.000	
18	 C30	23.485	7.071	61.330	C.2	1	RES1	0.000	
19	 C31	22.989	8.147	60.599	C.2	1	RES1	0.000	
20	 C32	23.810	8.850	59.704	C.2	1	RES1	0.000	
21	 C33	25.169	8.492	59.558	C.2	1	RES1	0.000	
22	 C34	25.670	7.436	60.312	C.2	1	RES1	0.000	
23	 C35	26.560	3.751	64.088	C.2	1	RES1	0.000	
24	 C36	30.163	8.684	66.239	C.3	1	RES1	0.000	
25	 C37	31.159	9.832	66.451	C.3	1	RES1	0.000	
@<TRIPOS>BOND
1 1 18 1
2 2 22 1
3 6 7 ar
4 8 13 2
5 9 16 2
6 3 10 1
7 10 11 1
8 11 12 1
9 4 12 1
10 12 24 1
11 4 13 1
12 13 14 1
13 7 14 ar
14 14 15 ar
15 5 15 1
16 15 23 ar
17 5 16 1
18 16 17 1
19 17 18 ar
20 17 22 ar
21 18 19 ar
22 19 20 ar
23 20 21 ar
24 21 22 ar
25 6 23 ar
26 24 25 1
27 3 25 1
@<TRIPOS>SUBSTRUCTURE
1	RES1	1	GROUP	1 ****	RES
