# created with PyMOL 2.5.2
@<TRIPOS>MOLECULE
CDK2_2VU3_TargetProtein
25 27 1                 
SMALL
USER_CHARGES
@<TRIPOS>ATOM
1	 CL1	22.584	6.392	62.456	Cl	1	RES1	0.000	
2	 CL2	27.585	7.142	60.256	Cl	1	RES1	0.000	
3	  N1	30.832	9.577	64.343	N.3	1	RES1	0.000	
4	  N2	30.058	6.298	65.794	N.3	1	RES1	0.000	
5	  N3	26.459	6.056	63.082	N.pl3	1	RES1	0.000	
6	  O3	28.558	7.664	64.715	O.3	1	RES1	0.000	
7	  N4	27.527	3.167	65.020	N.2	1	RES1	0.000	
8	  O4	25.226	4.580	61.769	O.2	1	RES1	0.000	
9	  C5	31.503	8.318	63.966	C.3	1	RES1	0.000	
10	  N5	28.330	4.211	65.433	N.2	1	RES1	0.000	
11	  C6	32.054	7.602	65.183	C.3	1	RES1	0.000	
12	  C7	30.971	7.348	66.219	C.3	1	RES1	0.000	
13	  C8	28.920	6.554	65.056	C.3	1	RES1	0.000	
14	  C9	28.135	5.382	64.768	C.2	1	RES1	0.000	
15	 C10	27.095	5.122	63.880	C.2	1	RES1	0.000	
16	 C11	25.570	5.716	62.072	C.2	1	RES1	0.000	
17	 C12	25.052	6.851	61.297	C.2	1	RES1	0.000	
18	 C13	23.724	7.240	61.440	C.2	1	RES1	0.000	
19	 C14	23.243	8.318	60.692	C.2	1	RES1	0.000	
20	 C15	24.094	9.029	59.837	C.2	1	RES1	0.000	
21	 C16	25.421	8.634	59.719	C.2	1	RES1	0.000	
22	 C17	25.919	7.539	60.449	C.2	1	RES1	0.000	
23	 C18	26.771	3.750	64.089	C.2	1	RES1	0.000	
24	 C19	30.225	8.624	66.551	C.3	1	RES1	0.000	
25	 C20	29.756	9.352	65.281	C.3	1	RES1	0.000	
@<TRIPOS>BOND
1 1 18 1
2 2 22 1
3 3 9 1
4 3 25 1
5 4 12 1
6 4 13 1
7 6 13 1
8 7 10 ar
9 9 11 1
10 10 14 ar
11 11 12 1
12 13 14 1
13 5 15 1
14 14 15 ar
15 15 23 ar
16 5 16 1
17 8 16 2
18 16 17 1
19 17 18 ar
20 17 22 ar
21 18 19 ar
22 19 20 ar
23 20 21 ar
24 21 22 ar
25 7 23 ar
26 12 24 1
27 24 25 1
@<TRIPOS>SUBSTRUCTURE
1	RES1	1	GROUP	1 ****	RES
