# created with PyMOL 2.5.2
@<TRIPOS>MOLECULE
CDK2_2VTL_TargetProtein
24 27 1                 
SMALL
USER_CHARGES
@<TRIPOS>ATOM
1	  N6	29.664	6.458	65.365	N.pl3	1	RES1	0.000	
2	  N7	25.882	5.718	63.205	N.pl3	1	RES1	0.000	
3	  N8	24.026	4.292	62.491	N.3	1	RES1	0.000	
4	  O8	27.923	7.444	64.184	O.2	1	RES1	0.000	
5	  N9	22.293	5.052	61.025	N.3	1	RES1	0.000	
6	 N10	22.532	7.361	60.370	N.3	1	RES1	0.000	
7	 N11	27.303	2.980	65.095	N.2	1	RES1	0.000	
8	 N12	28.162	4.053	65.296	N.2	1	RES1	0.000	
9	 C23	32.360	9.678	65.767	C.2	1	RES1	0.000	
10	 C24	31.731	9.497	64.535	C.2	1	RES1	0.000	
11	 C25	30.833	8.413	64.369	C.2	1	RES1	0.000	
12	 C26	30.573	7.558	65.432	C.2	1	RES1	0.000	
13	 C27	28.420	6.478	64.687	C.2	1	RES1	0.000	
14	 C28	27.768	5.199	64.670	C.2	1	RES1	0.000	
15	 C29	26.589	4.855	64.005	C.2	1	RES1	0.000	
16	 C30	24.677	5.486	62.492	C.3	1	RES1	0.000	
17	 C31	22.907	4.159	61.780	C.3	1	RES1	0.000	
18	 C32	22.922	6.230	61.048	C.3	1	RES1	0.000	
19	 C33	24.102	6.531	61.709	C.3	1	RES1	0.000	
20	 C34	24.429	7.904	61.433	C.3	1	RES1	0.000	
21	 C35	23.408	8.348	60.596	C.3	1	RES1	0.000	
22	 C36	26.342	3.489	64.308	C.2	1	RES1	0.000	
23	 C37	31.193	7.764	66.675	C.2	1	RES1	0.000	
24	 C38	32.084	8.821	66.828	C.2	1	RES1	0.000	
@<TRIPOS>BOND
1 6 18 1
2 6 21 1
3 7 8 ar
4 7 22 ar
5 8 14 ar
6 9 10 ar
7 9 24 ar
8 10 11 ar
9 11 12 ar
10 1 12 1
11 12 23 ar
12 1 13 1
13 4 13 2
14 13 14 1
15 14 15 ar
16 2 15 1
17 15 22 ar
18 2 16 1
19 3 16 1
20 16 19 1
21 3 17 1
22 5 17 1
23 5 18 1
24 18 19 1
25 19 20 1
26 20 21 1
27 23 24 ar
@<TRIPOS>SUBSTRUCTURE
1	RES1	1	GROUP	1 ****	RES
