# created with PyMOL 2.5.2
@<TRIPOS>MOLECULE
CDK2_2VTL_TargetProtein
24 27 1                 
SMALL
USER_CHARGES
@<TRIPOS>ATOM
1	  N6	29.583	6.494	65.324	N.pl3	1	RES1	0.000	
2	  N7	25.665	5.599	63.316	N.pl3	1	RES1	0.000	
3	  N8	24.208	3.916	62.362	N.3	1	RES1	0.000	
4	  O8	27.907	7.472	64.087	O.2	1	RES1	0.000	
5	  N9	22.267	4.494	60.964	N.3	1	RES1	0.000	
6	 N10	22.005	6.837	60.640	N.3	1	RES1	0.000	
7	 N11	27.437	3.040	65.138	N.2	1	RES1	0.000	
8	 N12	28.166	4.150	65.326	N.2	1	RES1	0.000	
9	 C25	32.403	9.615	65.791	C.2	1	RES1	0.000	
10	 C26	31.740	9.489	64.566	C.2	1	RES1	0.000	
11	 C27	30.789	8.454	64.411	C.2	1	RES1	0.000	
12	 C28	30.504	7.596	65.448	C.2	1	RES1	0.000	
13	 C29	28.377	6.496	64.639	C.2	1	RES1	0.000	
14	 C30	27.704	5.241	64.634	C.2	1	RES1	0.000	
15	 C31	26.542	4.807	64.029	C.2	1	RES1	0.000	
16	 C32	24.540	5.215	62.546	C.3	1	RES1	0.000	
17	 C33	23.127	3.645	61.619	C.3	1	RES1	0.000	
18	 C34	22.671	5.742	61.161	C.3	1	RES1	0.000	
19	 C35	23.734	6.206	61.928	C.3	1	RES1	0.000	
20	 C36	23.744	7.613	61.823	C.3	1	RES1	0.000	
21	 C37	22.677	7.978	61.033	C.3	1	RES1	0.000	
22	 C38	26.460	3.424	64.358	C.2	1	RES1	0.000	
23	 C39	31.203	7.696	66.646	C.2	1	RES1	0.000	
24	 C40	32.128	8.715	66.821	C.2	1	RES1	0.000	
@<TRIPOS>BOND
1 6 18 1
2 6 21 1
3 7 8 ar
4 7 22 ar
5 8 14 ar
6 9 10 ar
7 9 24 ar
8 10 11 ar
9 11 12 ar
10 1 12 1
11 12 23 ar
12 1 13 1
13 4 13 2
14 13 14 1
15 14 15 ar
16 2 15 1
17 15 22 ar
18 2 16 1
19 3 16 1
20 16 19 1
21 3 17 1
22 5 17 1
23 5 18 1
24 18 19 1
25 19 20 1
26 20 21 1
27 23 24 ar
@<TRIPOS>SUBSTRUCTURE
1	RES1	1	GROUP	1 ****	RES
