# created with PyMOL 2.5.2
@<TRIPOS>MOLECULE
CDK2_2VTL_TargetProtein
24 27 1                 
SMALL
USER_CHARGES
@<TRIPOS>ATOM
1	  N3	29.669	6.433	65.164	N.pl3	1	RES1	0.000	
2	  O3	27.955	7.454	63.945	O.2	1	RES1	0.000	
3	  N4	25.739	5.580	63.233	N.pl3	1	RES1	0.000	
4	  N5	23.744	4.183	63.146	N.3	1	RES1	0.000	
5	  N6	21.816	4.759	61.793	N.3	1	RES1	0.000	
6	  N7	22.062	6.818	60.587	N.3	1	RES1	0.000	
7	  C8	32.329	9.656	65.902	C.2	1	RES1	0.000	
8	  N8	27.388	3.065	65.279	N.2	1	RES1	0.000	
9	  C9	32.071	8.671	66.877	C.2	1	RES1	0.000	
10	  N9	28.206	4.123	65.261	N.2	1	RES1	0.000	
11	 C10	31.209	7.632	66.602	C.2	1	RES1	0.000	
12	 C11	30.572	7.538	65.359	C.2	1	RES1	0.000	
13	 C12	28.443	6.487	64.554	C.2	1	RES1	0.000	
14	 C13	27.723	5.225	64.596	C.2	1	RES1	0.000	
15	 C14	26.536	4.810	64.066	C.2	1	RES1	0.000	
16	 C15	24.436	5.300	62.764	C.3	1	RES1	0.000	
17	 C16	22.513	3.986	62.687	C.3	1	RES1	0.000	
18	 C17	22.522	5.827	61.435	C.3	1	RES1	0.000	
19	 C18	23.791	6.163	61.848	C.3	1	RES1	0.000	
20	 C19	24.118	7.409	61.212	C.3	1	RES1	0.000	
21	 C20	23.023	7.756	60.433	C.3	1	RES1	0.000	
22	 C21	26.359	3.486	64.533	C.2	1	RES1	0.000	
23	 C22	30.804	8.534	64.408	C.2	1	RES1	0.000	
24	 C23	31.680	9.575	64.670	C.2	1	RES1	0.000	
@<TRIPOS>BOND
1 7 9 ar
2 8 10 ar
3 9 11 ar
4 11 12 ar
5 1 12 1
6 12 23 ar
7 1 13 1
8 2 13 2
9 13 14 1
10 10 14 ar
11 14 15 ar
12 3 15 1
13 15 22 ar
14 3 16 1
15 4 16 1
16 16 19 1
17 4 17 1
18 5 17 1
19 5 18 1
20 6 18 1
21 18 19 1
22 19 20 1
23 20 21 1
24 6 21 1
25 8 22 ar
26 23 24 ar
27 7 24 ar
@<TRIPOS>SUBSTRUCTURE
1	RES1	1	GROUP	1 ****	RES
