# created with PyMOL 2.5.2
@<TRIPOS>MOLECULE
BRD4_6C7R_TargetProtein
35 40 1                 
SMALL
USER_CHARGES
@<TRIPOS>ATOM
1	  C1	-3.036	8.889	26.396	C.3	1	RES1	0.000	
2	  N1	-1.922	8.328	24.260	N.2	1	RES1	0.000	
3	  O1	4.957	6.917	26.717	O.2	1	RES1	0.000	
4	  C2	-2.669	7.793	25.427	C.3	1	RES1	0.000	
5	  N2	-2.602	8.935	23.283	N.2	1	RES1	0.000	
6	  C3	-1.660	9.261	22.395	C.2	1	RES1	0.000	
7	  N3	0.316	7.719	24.952	N.pl3	1	RES1	0.000	
8	  C4	-1.946	9.989	21.082	C.3	1	RES1	0.000	
9	  N4	2.539	6.862	25.350	N.2	1	RES1	0.000	
10	  C5	-3.217	9.723	20.308	C.3	1	RES1	0.000	
11	  C6	-1.929	9.201	19.773	C.3	1	RES1	0.000	
12	  O6	-3.174	5.409	21.142	O.3	1	RES1	0.000	
13	  C7	-0.373	8.874	22.804	C.2	1	RES1	0.000	
14	  O7	-2.467	2.355	17.758	O.2	1	RES1	0.000	
15	  C8	-0.550	8.263	24.033	C.2	1	RES1	0.000	
16	  C9	1.361	6.818	24.686	C.2	1	RES1	0.000	
17	  N9	3.474	4.991	24.177	N.2	1	RES1	0.000	
18	 C10	3.512	5.986	25.084	C.2	1	RES1	0.000	
19	 N10	-3.499	1.996	18.610	N.2	1	RES1	0.000	
20	 C11	4.763	6.085	25.850	C.2	1	RES1	0.000	
21	 N11	2.009	4.052	22.540	N.2	1	RES1	0.000	
22	 C31	2.308	4.955	23.509	C.2	1	RES1	0.000	
23	 C32	1.211	5.804	23.701	C.2	1	RES1	0.000	
24	 C33	0.214	5.331	22.790	C.2	1	RES1	0.000	
25	 C34	-1.088	5.746	22.474	C.2	1	RES1	0.000	
26	 C35	-1.852	5.079	21.504	C.2	1	RES1	0.000	
27	 C36	-3.840	6.378	21.959	C.3	1	RES1	0.000	
28	 C37	-1.270	4.002	20.786	C.2	1	RES1	0.000	
29	 C38	-1.986	3.278	19.757	C.2	1	RES1	0.000	
30	 C39	-1.556	3.130	18.460	C.2	1	RES1	0.000	
31	 C40	-0.390	3.578	17.662	C.3	1	RES1	0.000	
32	 C41	-3.190	2.514	19.803	C.2	1	RES1	0.000	
33	 C42	-4.093	2.320	20.977	C.3	1	RES1	0.000	
34	 C43	0.033	3.568	21.091	C.2	1	RES1	0.000	
35	 C44	0.728	4.271	22.081	C.2	1	RES1	0.000	
@<TRIPOS>BOND
1 1 4 1
2 2 4 1
3 2 5 ar
4 2 15 ar
5 3 20 2
6 5 6 ar
7 6 8 1
8 6 13 ar
9 7 15 1
10 7 16 1
11 8 10 1
12 8 11 1
13 9 16 ar
14 10 11 1
15 13 15 ar
16 9 18 ar
17 17 18 ar
18 18 20 1
19 14 19 ar
20 19 32 ar
21 21 22 ar
22 21 35 ar
23 17 22 ar
24 22 23 ar
25 16 23 ar
26 23 24 ar
27 24 25 ar
28 24 35 ar
29 25 26 ar
30 12 26 1
31 26 28 ar
32 12 27 1
33 28 29 1
34 28 34 ar
35 29 30 ar
36 29 32 ar
37 14 30 ar
38 30 31 1
39 32 33 1
40 34 35 ar
@<TRIPOS>SUBSTRUCTURE
1	RES1	1	GROUP	1 ****	RES
