# created with PyMOL 2.5.2
@<TRIPOS>MOLECULE
CDK2_2VTL_TargetProtein
24 27 1                 
SMALL
USER_CHARGES
@<TRIPOS>ATOM
1	  N3	29.706	6.437	65.192	N.pl3	1	RES1	0.000	
2	  O3	27.987	7.446	63.987	O.2	1	RES1	0.000	
3	  N4	25.711	5.574	63.235	N.pl3	1	RES1	0.000	
4	  N5	23.736	4.202	63.087	N.3	1	RES1	0.000	
5	  N6	21.820	4.775	61.770	N.3	1	RES1	0.000	
6	  N7	22.076	6.847	60.563	N.3	1	RES1	0.000	
7	  C8	32.326	9.667	65.887	C.2	1	RES1	0.000	
8	  N8	27.358	3.046	65.244	N.2	1	RES1	0.000	
9	  C9	32.070	8.718	66.875	C.2	1	RES1	0.000	
10	  N9	28.191	4.135	65.262	N.2	1	RES1	0.000	
11	 C10	31.204	7.650	66.606	C.2	1	RES1	0.000	
12	 C11	30.591	7.527	65.373	C.2	1	RES1	0.000	
13	 C12	28.440	6.468	64.576	C.2	1	RES1	0.000	
14	 C13	27.732	5.211	64.613	C.2	1	RES1	0.000	
15	 C14	26.515	4.819	64.041	C.2	1	RES1	0.000	
16	 C15	24.436	5.303	62.737	C.3	1	RES1	0.000	
17	 C16	22.505	4.011	62.595	C.3	1	RES1	0.000	
18	 C17	22.530	5.857	61.420	C.3	1	RES1	0.000	
19	 C18	23.808	6.204	61.843	C.3	1	RES1	0.000	
20	 C19	24.105	7.437	61.222	C.3	1	RES1	0.000	
21	 C20	23.042	7.808	60.445	C.3	1	RES1	0.000	
22	 C21	26.358	3.491	64.512	C.2	1	RES1	0.000	
23	 C22	30.797	8.516	64.390	C.2	1	RES1	0.000	
24	 C23	31.670	9.557	64.660	C.2	1	RES1	0.000	
@<TRIPOS>BOND
1 7 9 ar
2 8 10 ar
3 9 11 ar
4 11 12 ar
5 1 12 1
6 12 23 ar
7 1 13 1
8 2 13 2
9 13 14 1
10 10 14 ar
11 14 15 ar
12 3 15 1
13 15 22 ar
14 3 16 1
15 4 16 1
16 16 19 1
17 4 17 1
18 5 17 1
19 5 18 1
20 6 18 1
21 18 19 1
22 19 20 1
23 20 21 1
24 6 21 1
25 8 22 ar
26 23 24 ar
27 7 24 ar
@<TRIPOS>SUBSTRUCTURE
1	RES1	1	GROUP	1 ****	RES
