# created with PyMOL 2.5.2
@<TRIPOS>MOLECULE
CDK2_2VTL_TargetProtein
24 27 1                 
SMALL
USER_CHARGES
@<TRIPOS>ATOM
1	  N3	29.597	6.497	65.353	N.pl3	1	RES1	0.000	
2	  O3	27.864	7.503	64.153	O.2	1	RES1	0.000	
3	  N4	25.684	5.620	63.337	N.pl3	1	RES1	0.000	
4	  N5	24.201	3.975	62.352	N.3	1	RES1	0.000	
5	  N6	22.297	4.574	60.988	N.3	1	RES1	0.000	
6	  N7	22.007	6.936	60.723	N.3	1	RES1	0.000	
7	  C8	32.401	9.614	65.768	C.2	1	RES1	0.000	
8	  N8	27.434	2.997	65.099	N.2	1	RES1	0.000	
9	  C9	32.110	8.787	66.836	C.2	1	RES1	0.000	
10	  N9	28.175	4.130	65.295	N.2	1	RES1	0.000	
11	 C10	31.182	7.751	66.669	C.2	1	RES1	0.000	
12	 C11	30.526	7.567	65.443	C.2	1	RES1	0.000	
13	 C12	28.380	6.497	64.678	C.2	1	RES1	0.000	
14	 C13	27.711	5.260	64.660	C.2	1	RES1	0.000	
15	 C14	26.534	4.816	64.044	C.2	1	RES1	0.000	
16	 C15	24.556	5.273	62.569	C.3	1	RES1	0.000	
17	 C16	23.115	3.691	61.601	C.3	1	RES1	0.000	
18	 C17	22.665	5.845	61.212	C.3	1	RES1	0.000	
19	 C18	23.747	6.272	61.956	C.3	1	RES1	0.000	
20	 C19	23.739	7.697	61.891	C.3	1	RES1	0.000	
21	 C20	22.665	8.089	61.125	C.3	1	RES1	0.000	
22	 C21	26.440	3.422	64.307	C.2	1	RES1	0.000	
23	 C22	30.824	8.422	64.369	C.2	1	RES1	0.000	
24	 C23	31.762	9.428	64.539	C.2	1	RES1	0.000	
@<TRIPOS>BOND
1 7 9 ar
2 8 10 ar
3 9 11 ar
4 11 12 ar
5 1 12 1
6 12 23 ar
7 1 13 1
8 2 13 2
9 13 14 1
10 10 14 ar
11 14 15 ar
12 3 15 1
13 15 22 ar
14 3 16 1
15 4 16 1
16 16 19 1
17 4 17 1
18 5 17 1
19 5 18 1
20 6 18 1
21 18 19 1
22 19 20 1
23 20 21 1
24 6 21 1
25 8 22 ar
26 23 24 ar
27 7 24 ar
@<TRIPOS>SUBSTRUCTURE
1	RES1	1	GROUP	1 ****	RES
