# created with PyMOL 2.5.2
@<TRIPOS>MOLECULE
CDK2_2VTL_TargetProtein
24 27 1                 
SMALL
USER_CHARGES
@<TRIPOS>ATOM
1	  N3	29.586	6.489	65.313	N.pl3	1	RES1	0.000	
2	  O3	27.857	7.524	64.129	O.2	1	RES1	0.000	
3	  N4	25.674	5.557	63.285	N.pl3	1	RES1	0.000	
4	  N5	24.231	3.851	62.361	N.3	1	RES1	0.000	
5	  N6	22.331	4.336	60.956	N.3	1	RES1	0.000	
6	  N7	22.009	6.686	60.585	N.3	1	RES1	0.000	
7	  C8	32.405	9.581	65.803	C.2	1	RES1	0.000	
8	  N8	27.482	3.041	65.159	N.2	1	RES1	0.000	
9	  C9	32.086	8.716	66.838	C.2	1	RES1	0.000	
10	  N9	28.186	4.171	65.316	N.2	1	RES1	0.000	
11	 C10	31.176	7.693	66.650	C.2	1	RES1	0.000	
12	 C11	30.516	7.560	65.432	C.2	1	RES1	0.000	
13	 C12	28.362	6.542	64.631	C.2	1	RES1	0.000	
14	 C13	27.695	5.260	64.616	C.2	1	RES1	0.000	
15	 C14	26.544	4.795	64.040	C.2	1	RES1	0.000	
16	 C15	24.571	5.144	62.527	C.3	1	RES1	0.000	
17	 C16	23.146	3.489	61.604	C.3	1	RES1	0.000	
18	 C17	22.669	5.618	61.134	C.3	1	RES1	0.000	
19	 C18	23.752	6.101	61.873	C.3	1	RES1	0.000	
20	 C19	23.716	7.541	61.745	C.3	1	RES1	0.000	
21	 C20	22.628	7.841	60.965	C.3	1	RES1	0.000	
22	 C21	26.479	3.409	64.362	C.2	1	RES1	0.000	
23	 C22	30.802	8.443	64.370	C.2	1	RES1	0.000	
24	 C23	31.767	9.465	64.557	C.2	1	RES1	0.000	
@<TRIPOS>BOND
1 7 9 ar
2 8 10 ar
3 9 11 ar
4 11 12 ar
5 1 12 1
6 12 23 ar
7 1 13 1
8 2 13 2
9 13 14 1
10 10 14 ar
11 14 15 ar
12 3 15 1
13 15 22 ar
14 3 16 1
15 4 16 1
16 16 19 1
17 4 17 1
18 5 17 1
19 5 18 1
20 6 18 1
21 18 19 1
22 19 20 1
23 20 21 1
24 6 21 1
25 8 22 ar
26 23 24 ar
27 7 24 ar
@<TRIPOS>SUBSTRUCTURE
1	RES1	1	GROUP	1 ****	RES
