# created with PyMOL 2.5.2
@<TRIPOS>MOLECULE
CDK2_2VTL_TargetProtein
24 27 1                 
SMALL
USER_CHARGES
@<TRIPOS>ATOM
1	  N3	29.661	6.481	65.352	N.pl3	1	RES1	0.000	
2	  O3	27.926	7.457	64.143	O.2	1	RES1	0.000	
3	  N4	25.857	5.717	63.243	N.pl3	1	RES1	0.000	
4	  N5	24.010	4.306	62.548	N.3	1	RES1	0.000	
5	  N6	22.227	5.062	61.113	N.3	1	RES1	0.000	
6	  N7	22.472	7.358	60.449	N.3	1	RES1	0.000	
7	  C8	32.364	9.685	65.770	C.2	1	RES1	0.000	
8	  N8	27.313	2.998	65.121	N.2	1	RES1	0.000	
9	  C9	32.113	8.798	66.815	C.2	1	RES1	0.000	
10	  N9	28.135	4.016	65.285	N.2	1	RES1	0.000	
11	 C10	31.200	7.755	66.666	C.2	1	RES1	0.000	
12	 C11	30.546	7.568	65.449	C.2	1	RES1	0.000	
13	 C12	28.421	6.476	64.667	C.2	1	RES1	0.000	
14	 C13	27.752	5.182	64.665	C.2	1	RES1	0.000	
15	 C14	26.581	4.853	64.020	C.2	1	RES1	0.000	
16	 C15	24.641	5.511	62.526	C.3	1	RES1	0.000	
17	 C16	22.882	4.154	61.855	C.3	1	RES1	0.000	
18	 C17	22.876	6.224	61.125	C.3	1	RES1	0.000	
19	 C18	24.052	6.537	61.791	C.3	1	RES1	0.000	
20	 C19	24.348	7.894	61.478	C.3	1	RES1	0.000	
21	 C20	23.354	8.357	60.660	C.3	1	RES1	0.000	
22	 C21	26.375	3.481	64.317	C.2	1	RES1	0.000	
23	 C22	30.814	8.449	64.389	C.2	1	RES1	0.000	
24	 C23	31.742	9.488	64.555	C.2	1	RES1	0.000	
@<TRIPOS>BOND
1 7 9 ar
2 8 10 ar
3 9 11 ar
4 11 12 ar
5 1 12 1
6 12 23 ar
7 1 13 1
8 2 13 2
9 13 14 1
10 10 14 ar
11 14 15 ar
12 3 15 1
13 15 22 ar
14 3 16 1
15 4 16 1
16 16 19 1
17 4 17 1
18 5 17 1
19 5 18 1
20 6 18 1
21 18 19 1
22 19 20 1
23 20 21 1
24 6 21 1
25 8 22 ar
26 23 24 ar
27 7 24 ar
@<TRIPOS>SUBSTRUCTURE
1	RES1	1	GROUP	1 ****	RES
