# created with PyMOL 2.5.2
@<TRIPOS>MOLECULE
CDK2_2VTL_TargetProtein
24 27 1                 
SMALL
USER_CHARGES
@<TRIPOS>ATOM
1	  N3	29.670	6.428	65.189	N.pl3	1	RES1	0.000	
2	  O3	27.975	7.453	63.976	O.2	1	RES1	0.000	
3	  N4	25.701	5.571	63.243	N.pl3	1	RES1	0.000	
4	  N5	23.737	4.146	63.172	N.3	1	RES1	0.000	
5	  N6	21.783	4.702	61.811	N.3	1	RES1	0.000	
6	  N7	22.004	6.762	60.630	N.3	1	RES1	0.000	
7	  C8	32.308	9.630	65.894	C.2	1	RES1	0.000	
8	  N8	27.424	3.063	65.264	N.2	1	RES1	0.000	
9	  C9	32.062	8.701	66.874	C.2	1	RES1	0.000	
10	  N9	28.223	4.159	65.258	N.2	1	RES1	0.000	
11	 C10	31.211	7.637	66.608	C.2	1	RES1	0.000	
12	 C11	30.575	7.519	65.368	C.2	1	RES1	0.000	
13	 C12	28.421	6.511	64.558	C.2	1	RES1	0.000	
14	 C13	27.711	5.252	64.601	C.2	1	RES1	0.000	
15	 C14	26.512	4.816	64.063	C.2	1	RES1	0.000	
16	 C15	24.402	5.272	62.770	C.3	1	RES1	0.000	
17	 C16	22.495	3.931	62.679	C.3	1	RES1	0.000	
18	 C17	22.472	5.790	61.470	C.3	1	RES1	0.000	
19	 C18	23.753	6.144	61.881	C.3	1	RES1	0.000	
20	 C19	24.050	7.386	61.249	C.3	1	RES1	0.000	
21	 C20	22.946	7.736	60.477	C.3	1	RES1	0.000	
22	 C21	26.359	3.466	64.510	C.2	1	RES1	0.000	
23	 C22	30.814	8.496	64.405	C.2	1	RES1	0.000	
24	 C23	31.676	9.556	64.649	C.2	1	RES1	0.000	
@<TRIPOS>BOND
1 7 9 ar
2 8 10 ar
3 9 11 ar
4 11 12 ar
5 1 12 1
6 12 23 ar
7 1 13 1
8 2 13 2
9 13 14 1
10 10 14 ar
11 14 15 ar
12 3 15 1
13 15 22 ar
14 3 16 1
15 4 16 1
16 16 19 1
17 4 17 1
18 5 17 1
19 5 18 1
20 6 18 1
21 18 19 1
22 19 20 1
23 20 21 1
24 6 21 1
25 8 22 ar
26 23 24 ar
27 7 24 ar
@<TRIPOS>SUBSTRUCTURE
1	RES1	1	GROUP	1 ****	RES
