# created with PyMOL 2.5.2
@<TRIPOS>MOLECULE
CDK2_2VTL_TargetProtein
24 27 1                 
SMALL
USER_CHARGES
@<TRIPOS>ATOM
1	  N6	29.591	6.509	65.319	N.pl3	1	RES1	0.000	
2	  N7	25.645	5.575	63.311	N.pl3	1	RES1	0.000	
3	  N8	24.167	3.892	62.408	N.3	1	RES1	0.000	
4	  N9	22.251	4.417	61.044	N.3	1	RES1	0.000	
5	 N10	21.973	6.774	60.719	N.3	1	RES1	0.000	
6	 O10	27.867	7.505	64.166	O.2	1	RES1	0.000	
7	 N11	27.470	3.034	65.141	N.2	1	RES1	0.000	
8	 N12	28.183	4.155	65.297	N.2	1	RES1	0.000	
9	 C25	32.408	9.607	65.784	C.2	1	RES1	0.000	
10	 C26	31.762	9.444	64.556	C.2	1	RES1	0.000	
11	 C27	30.831	8.434	64.379	C.2	1	RES1	0.000	
12	 C28	30.513	7.566	65.423	C.2	1	RES1	0.000	
13	 C29	28.368	6.522	64.631	C.2	1	RES1	0.000	
14	 C30	27.690	5.235	64.625	C.2	1	RES1	0.000	
15	 C31	26.529	4.801	64.021	C.2	1	RES1	0.000	
16	 C32	24.520	5.204	62.562	C.3	1	RES1	0.000	
17	 C33	23.087	3.575	61.675	C.3	1	RES1	0.000	
18	 C34	22.626	5.707	61.209	C.3	1	RES1	0.000	
19	 C35	23.703	6.157	61.961	C.3	1	RES1	0.000	
20	 C36	23.690	7.570	61.839	C.3	1	RES1	0.000	
21	 C37	22.585	7.918	61.070	C.3	1	RES1	0.000	
22	 C38	26.458	3.416	64.363	C.2	1	RES1	0.000	
23	 C39	31.181	7.724	66.665	C.2	1	RES1	0.000	
24	 C40	32.094	8.736	66.847	C.2	1	RES1	0.000	
@<TRIPOS>BOND
1 5 18 1
2 5 21 1
3 6 13 2
4 7 8 ar
5 7 22 ar
6 8 14 ar
7 9 10 ar
8 9 24 ar
9 10 11 ar
10 11 12 ar
11 1 12 1
12 12 23 ar
13 1 13 1
14 13 14 1
15 14 15 ar
16 2 15 1
17 15 22 ar
18 2 16 1
19 3 16 1
20 16 19 1
21 3 17 1
22 4 17 1
23 4 18 1
24 18 19 1
25 19 20 1
26 20 21 1
27 23 24 ar
@<TRIPOS>SUBSTRUCTURE
1	RES1	1	GROUP	1 ****	RES
