# created with PyMOL 2.5.2
@<TRIPOS>MOLECULE
CDK2_2VTL_TargetProtein
24 27 1                 
SMALL
USER_CHARGES
@<TRIPOS>ATOM
1	  N3	29.710	6.410	65.185	N.pl3	1	RES1	0.000	
2	  O3	27.973	7.458	64.000	O.2	1	RES1	0.000	
3	  N4	25.729	5.592	63.246	N.pl3	1	RES1	0.000	
4	  N5	23.729	4.216	63.157	N.3	1	RES1	0.000	
5	  N6	21.796	4.804	61.801	N.3	1	RES1	0.000	
6	  N7	22.055	6.832	60.599	N.3	1	RES1	0.000	
7	  C8	32.303	9.665	65.893	C.2	1	RES1	0.000	
8	  N8	27.366	3.078	65.247	N.2	1	RES1	0.000	
9	  C9	32.047	8.703	66.887	C.2	1	RES1	0.000	
10	  N9	28.204	4.122	65.268	N.2	1	RES1	0.000	
11	 C10	31.190	7.657	66.619	C.2	1	RES1	0.000	
12	 C11	30.596	7.502	65.348	C.2	1	RES1	0.000	
13	 C12	28.454	6.477	64.568	C.2	1	RES1	0.000	
14	 C13	27.724	5.213	64.608	C.2	1	RES1	0.000	
15	 C14	26.523	4.830	64.063	C.2	1	RES1	0.000	
16	 C15	24.428	5.324	62.763	C.3	1	RES1	0.000	
17	 C16	22.466	4.020	62.671	C.3	1	RES1	0.000	
18	 C17	22.506	5.882	61.440	C.3	1	RES1	0.000	
19	 C18	23.784	6.192	61.873	C.3	1	RES1	0.000	
20	 C19	24.127	7.442	61.225	C.3	1	RES1	0.000	
21	 C20	23.019	7.802	60.441	C.3	1	RES1	0.000	
22	 C21	26.351	3.486	64.512	C.2	1	RES1	0.000	
23	 C22	30.835	8.517	64.369	C.2	1	RES1	0.000	
24	 C23	31.669	9.570	64.649	C.2	1	RES1	0.000	
@<TRIPOS>BOND
1 7 9 ar
2 8 10 ar
3 9 11 ar
4 11 12 ar
5 1 12 1
6 12 23 ar
7 1 13 1
8 2 13 2
9 13 14 1
10 10 14 ar
11 14 15 ar
12 3 15 1
13 15 22 ar
14 3 16 1
15 4 16 1
16 16 19 1
17 4 17 1
18 5 17 1
19 5 18 1
20 6 18 1
21 18 19 1
22 19 20 1
23 20 21 1
24 6 21 1
25 8 22 ar
26 23 24 ar
27 7 24 ar
@<TRIPOS>SUBSTRUCTURE
1	RES1	1	GROUP	1 ****	RES
