# created with PyMOL 2.5.2
@<TRIPOS>MOLECULE
CDK6_2EUF_TargetProtein
33 37 1                 
SMALL
USER_CHARGES
@<TRIPOS>ATOM
1	  C1	34.413	27.660	59.379	C.3	1	RES1	0.000	
2	  N1	31.543	22.808	63.601	N.2	1	RES1	0.000	
3	  O1	32.449	28.670	60.249	O.2	1	RES1	0.000	
4	  C2	33.058	27.666	60.044	C.2	1	RES1	0.000	
5	  N2	30.247	20.925	62.866	N.pl3	1	RES1	0.000	
6	  C3	32.496	26.327	60.411	C.2	1	RES1	0.000	
7	  N3	27.767	16.837	59.788	N.pl3	1	RES1	0.000	
8	  C4	32.680	25.851	61.680	C.2	1	RES1	0.000	
9	  N4	26.414	14.542	58.651	N.3	1	RES1	0.000	
10	  C5	33.512	26.553	62.735	C.3	1	RES1	0.000	
11	  C6	32.046	24.560	62.025	C.2	1	RES1	0.000	
12	  C7	32.097	23.971	63.288	C.2	1	RES1	0.000	
13	  O7	31.543	26.066	58.277	O.2	1	RES1	0.000	
14	  C8	30.866	22.133	62.635	C.2	1	RES1	0.000	
15	  C9	29.614	19.961	62.027	C.2	1	RES1	0.000	
16	  N9	29.380	18.776	62.611	N.2	1	RES1	0.000	
17	 C10	29.260	20.191	60.702	C.2	1	RES1	0.000	
18	 N10	30.767	22.625	61.412	N.2	1	RES1	0.000	
19	 C11	28.640	19.178	59.976	C.2	1	RES1	0.000	
20	 N11	31.205	24.296	59.760	N.2	1	RES1	0.000	
21	 C12	28.407	17.922	60.512	C.2	1	RES1	0.000	
22	 C13	28.475	15.542	59.655	C.3	1	RES1	0.000	
23	 C14	27.879	14.675	58.529	C.3	1	RES1	0.000	
24	 C36	25.792	15.857	58.628	C.3	1	RES1	0.000	
25	 C37	26.301	16.783	59.741	C.3	1	RES1	0.000	
26	 C38	28.792	17.803	61.866	C.2	1	RES1	0.000	
27	 C39	31.340	23.780	61.088	C.2	1	RES1	0.000	
28	 C40	30.460	23.503	58.767	C.3	1	RES1	0.000	
29	 C41	31.333	22.844	57.671	C.3	1	RES1	0.000	
30	 C42	30.727	23.306	56.364	C.3	1	RES1	0.000	
31	 C43	29.301	23.609	56.656	C.3	1	RES1	0.000	
32	 C44	29.386	24.289	58.034	C.3	1	RES1	0.000	
33	 C45	31.713	25.555	59.397	C.2	1	RES1	0.000	
@<TRIPOS>BOND
1 1 4 1
2 2 12 ar
3 2 14 ar
4 3 4 2
5 4 6 1
6 5 14 1
7 5 15 1
8 6 8 ar
9 6 33 ar
10 7 25 1
11 8 10 1
12 8 11 ar
13 11 12 ar
14 15 16 ar
15 15 17 ar
16 17 19 ar
17 14 18 ar
18 18 27 ar
19 19 21 ar
20 20 27 ar
21 20 28 1
22 20 33 ar
23 7 21 1
24 21 26 ar
25 7 22 1
26 22 23 1
27 9 23 1
28 9 24 1
29 24 25 1
30 16 26 ar
31 11 27 ar
32 28 29 1
33 28 32 1
34 29 30 1
35 30 31 1
36 31 32 1
37 13 33 2
@<TRIPOS>SUBSTRUCTURE
1	RES1	1	GROUP	1 ****	RES
