# created with PyMOL 2.5.2
@<TRIPOS>MOLECULE
CDK6_2EUF_TargetProtein
33 37 1                 
SMALL
USER_CHARGES
@<TRIPOS>ATOM
1	  C1	34.254	27.736	59.306	C.3	1	RES1	0.000	
2	  N1	31.670	22.753	63.621	N.2	1	RES1	0.000	
3	  O1	32.286	28.696	60.274	O.2	1	RES1	0.000	
4	  C2	32.935	27.674	60.041	C.2	1	RES1	0.000	
5	  N2	30.432	20.823	62.895	N.pl3	1	RES1	0.000	
6	  C3	32.415	26.346	60.417	C.2	1	RES1	0.000	
7	  N3	27.806	16.867	59.822	N.pl3	1	RES1	0.000	
8	  C4	32.658	25.851	61.635	C.2	1	RES1	0.000	
9	  N4	26.236	14.843	58.429	N.3	1	RES1	0.000	
10	  C5	33.490	26.572	62.703	C.3	1	RES1	0.000	
11	  C6	32.097	24.540	62.023	C.2	1	RES1	0.000	
12	  C7	32.217	23.944	63.264	C.2	1	RES1	0.000	
13	  C8	31.013	22.075	62.667	C.2	1	RES1	0.000	
14	  C9	29.779	19.895	62.078	C.2	1	RES1	0.000	
15	  N9	29.708	18.646	62.534	N.2	1	RES1	0.000	
16	 C10	29.194	20.228	60.808	C.2	1	RES1	0.000	
17	 N10	30.824	22.557	61.411	N.2	1	RES1	0.000	
18	 C11	28.552	19.228	60.083	C.2	1	RES1	0.000	
19	 N11	31.163	24.261	59.780	N.2	1	RES1	0.000	
20	 C12	28.465	17.920	60.570	C.2	1	RES1	0.000	
21	 O12	31.411	26.046	58.331	O.2	1	RES1	0.000	
22	 C13	27.060	17.207	58.606	C.3	1	RES1	0.000	
23	 C14	26.811	15.979	57.713	C.3	1	RES1	0.000	
24	 C42	27.104	14.486	59.552	C.3	1	RES1	0.000	
25	 C43	27.361	15.625	60.531	C.3	1	RES1	0.000	
26	 C44	29.052	17.725	61.777	C.2	1	RES1	0.000	
27	 C45	31.358	23.781	61.091	C.2	1	RES1	0.000	
28	 C46	30.421	23.436	58.812	C.3	1	RES1	0.000	
29	 C47	31.268	22.787	57.696	C.3	1	RES1	0.000	
30	 C48	30.686	23.220	56.395	C.3	1	RES1	0.000	
31	 C49	29.232	23.549	56.709	C.3	1	RES1	0.000	
32	 C50	29.330	24.213	58.056	C.3	1	RES1	0.000	
33	 C51	31.610	25.558	59.393	C.2	1	RES1	0.000	
@<TRIPOS>BOND
1 1 4 1
2 2 12 ar
3 2 13 ar
4 3 4 2
5 4 6 1
6 5 13 1
7 5 14 1
8 6 8 ar
9 6 33 ar
10 7 25 1
11 8 10 1
12 8 11 ar
13 9 24 1
14 11 12 ar
15 14 15 ar
16 14 16 ar
17 16 18 ar
18 13 17 ar
19 17 27 ar
20 18 20 ar
21 19 27 ar
22 19 28 1
23 19 33 ar
24 7 20 1
25 20 26 ar
26 21 33 2
27 7 22 1
28 22 23 1
29 9 23 1
30 24 25 1
31 15 26 ar
32 11 27 ar
33 28 29 1
34 28 32 1
35 29 30 1
36 30 31 1
37 31 32 1
@<TRIPOS>SUBSTRUCTURE
1	RES1	1	GROUP	1 ****	RES
