# created with PyMOL 2.5.2
@<TRIPOS>MOLECULE
CDK6_2EUF_TargetProtein
33 37 1                 
SMALL
USER_CHARGES
@<TRIPOS>ATOM
1	  C1	34.768	27.612	59.510	C.3	1	RES1	0.000	
2	  N1	31.359	22.996	63.586	N.2	1	RES1	0.000	
3	  O1	32.681	28.669	59.995	O.2	1	RES1	0.000	
4	  C2	33.301	27.627	59.948	C.2	1	RES1	0.000	
5	  N2	30.232	21.003	62.797	N.pl3	1	RES1	0.000	
6	  C3	32.672	26.339	60.341	C.2	1	RES1	0.000	
7	  N3	27.894	16.938	59.647	N.pl3	1	RES1	0.000	
8	  C4	32.612	25.988	61.641	C.2	1	RES1	0.000	
9	  N4	26.622	14.726	58.156	N.3	1	RES1	0.000	
10	  C5	33.155	26.839	62.785	C.3	1	RES1	0.000	
11	  C6	31.983	24.677	61.976	C.2	1	RES1	0.000	
12	  C7	31.943	24.170	63.283	C.2	1	RES1	0.000	
13	  C8	30.830	22.262	62.583	C.2	1	RES1	0.000	
14	  N8	29.405	18.865	62.507	N.2	1	RES1	0.000	
15	  O8	32.139	25.856	58.103	O.2	1	RES1	0.000	
16	  C9	29.670	20.047	61.946	C.2	1	RES1	0.000	
17	  N9	30.829	22.656	61.308	N.2	1	RES1	0.000	
18	 C10	29.348	20.273	60.591	C.2	1	RES1	0.000	
19	 N10	31.433	24.305	59.647	N.2	1	RES1	0.000	
20	 C11	28.782	19.264	59.834	C.2	1	RES1	0.000	
21	 C12	28.502	18.009	60.401	C.2	1	RES1	0.000	
22	 C13	28.534	15.625	59.532	C.3	1	RES1	0.000	
23	 C14	28.083	14.898	58.282	C.3	1	RES1	0.000	
24	 C36	25.862	15.794	58.815	C.3	1	RES1	0.000	
25	 C37	26.601	17.117	58.958	C.3	1	RES1	0.000	
26	 C38	28.837	17.889	61.762	C.2	1	RES1	0.000	
27	 C39	31.404	23.870	61.005	C.2	1	RES1	0.000	
28	 C40	30.811	23.452	58.592	C.3	1	RES1	0.000	
29	 C41	29.925	24.160	57.565	C.3	1	RES1	0.000	
30	 C42	28.638	23.364	57.509	C.3	1	RES1	0.000	
31	 C43	28.996	21.997	58.038	C.3	1	RES1	0.000	
32	 C44	29.992	22.282	59.126	C.3	1	RES1	0.000	
33	 C45	32.057	25.495	59.258	C.2	1	RES1	0.000	
@<TRIPOS>BOND
1 1 4 1
2 2 12 ar
3 2 13 ar
4 3 4 2
5 4 6 1
6 5 13 1
7 5 16 1
8 6 8 ar
9 6 33 ar
10 7 25 1
11 8 10 1
12 8 11 ar
13 11 12 ar
14 13 17 ar
15 14 16 ar
16 16 18 ar
17 18 20 ar
18 19 27 ar
19 19 28 1
20 19 33 ar
21 20 21 ar
22 7 21 1
23 21 26 ar
24 7 22 1
25 22 23 1
26 9 23 1
27 9 24 1
28 24 25 1
29 14 26 ar
30 11 27 ar
31 17 27 ar
32 28 29 1
33 28 32 1
34 29 30 1
35 30 31 1
36 31 32 1
37 15 33 2
@<TRIPOS>SUBSTRUCTURE
1	RES1	1	GROUP	1 ****	RES
