# created with PyMOL 2.5.2
@<TRIPOS>MOLECULE
BRD2_4ALH_TargetProtein
35 40 1                 
SMALL
USER_CHARGES
@<TRIPOS>ATOM
1	  C1	-3.066	6.682	25.435	C.3	1	RES1	0.000	
2	  N1	-1.844	8.432	24.193	N.2	1	RES1	0.000	
3	  O1	4.966	6.910	26.707	O.2	1	RES1	0.000	
4	  C2	-2.564	8.101	25.438	C.3	1	RES1	0.000	
5	  N2	-2.535	9.000	23.201	N.2	1	RES1	0.000	
6	  C3	-1.605	9.204	22.272	C.2	1	RES1	0.000	
7	  N3	0.358	7.731	24.860	N.pl3	1	RES1	0.000	
8	  C4	-1.931	9.839	20.909	C.3	1	RES1	0.000	
9	  N4	2.547	6.850	25.330	N.2	1	RES1	0.000	
10	  C5	-3.015	10.913	20.794	C.3	1	RES1	0.000	
11	  C6	-3.257	9.570	20.235	C.3	1	RES1	0.000	
12	  O6	-3.052	5.389	20.970	O.3	1	RES1	0.000	
13	  C7	-0.336	8.806	22.672	C.2	1	RES1	0.000	
14	  O7	-2.401	2.212	17.785	O.2	1	RES1	0.000	
15	  C8	-0.501	8.284	23.947	C.2	1	RES1	0.000	
16	  C9	1.376	6.786	24.631	C.2	1	RES1	0.000	
17	  N9	3.466	4.896	24.254	N.2	1	RES1	0.000	
18	 C10	3.512	5.920	25.116	C.2	1	RES1	0.000	
19	 N10	-3.514	1.931	18.608	N.2	1	RES1	0.000	
20	 C11	4.764	6.037	25.877	C.2	1	RES1	0.000	
21	 N11	2.003	3.906	22.652	N.2	1	RES1	0.000	
22	 C30	2.290	4.864	23.582	C.2	1	RES1	0.000	
23	 C31	1.243	5.735	23.688	C.2	1	RES1	0.000	
24	 C32	0.236	5.297	22.769	C.2	1	RES1	0.000	
25	 C33	-1.037	5.718	22.370	C.2	1	RES1	0.000	
26	 C34	-1.763	5.034	21.395	C.2	1	RES1	0.000	
27	 C35	-3.731	6.411	21.744	C.3	1	RES1	0.000	
28	 C36	-1.221	3.887	20.788	C.2	1	RES1	0.000	
29	 C37	-1.947	3.155	19.766	C.2	1	RES1	0.000	
30	 C38	-1.497	2.932	18.487	C.2	1	RES1	0.000	
31	 C39	-0.237	3.259	17.745	C.3	1	RES1	0.000	
32	 C40	-3.221	2.504	19.788	C.2	1	RES1	0.000	
33	 C41	-4.188	2.415	20.903	C.3	1	RES1	0.000	
34	 C42	0.042	3.433	21.159	C.2	1	RES1	0.000	
35	 C43	0.759	4.137	22.141	C.2	1	RES1	0.000	
@<TRIPOS>BOND
1 1 4 1
2 2 4 1
3 2 5 ar
4 2 15 ar
5 3 20 2
6 5 6 ar
7 6 8 1
8 6 13 ar
9 7 15 1
10 7 16 1
11 8 10 1
12 8 11 1
13 9 16 ar
14 10 11 1
15 13 15 ar
16 9 18 ar
17 17 18 ar
18 18 20 1
19 14 19 ar
20 19 32 ar
21 21 22 ar
22 21 35 ar
23 17 22 ar
24 22 23 ar
25 16 23 ar
26 23 24 ar
27 24 25 ar
28 24 35 ar
29 25 26 ar
30 12 26 1
31 26 28 ar
32 12 27 1
33 28 29 1
34 28 34 ar
35 29 30 ar
36 29 32 ar
37 14 30 ar
38 30 31 1
39 32 33 1
40 34 35 ar
@<TRIPOS>SUBSTRUCTURE
1	RES1	1	GROUP	1 ****	RES
