# created with PyMOL 2.5.2
@<TRIPOS>MOLECULE
CDK6_2EUF_TargetProtein
33 37 1                 
SMALL
USER_CHARGES
@<TRIPOS>ATOM
1	  C1	34.457	27.583	59.351	C.3	1	RES1	0.000	
2	  N1	31.546	22.811	63.636	N.2	1	RES1	0.000	
3	  O1	32.500	28.671	60.203	O.2	1	RES1	0.000	
4	  C2	33.089	27.624	60.021	C.2	1	RES1	0.000	
5	  N2	30.239	20.896	62.892	N.pl3	1	RES1	0.000	
6	  C3	32.487	26.310	60.392	C.2	1	RES1	0.000	
7	  N3	27.792	16.825	59.890	N.pl3	1	RES1	0.000	
8	  C4	32.666	25.851	61.675	C.2	1	RES1	0.000	
9	  N4	26.509	14.637	58.321	N.3	1	RES1	0.000	
10	  C5	33.459	26.555	62.746	C.3	1	RES1	0.000	
11	  C6	32.047	24.580	62.016	C.2	1	RES1	0.000	
12	  C7	32.112	23.991	63.286	C.2	1	RES1	0.000	
13	  O7	31.650	26.028	58.255	O.2	1	RES1	0.000	
14	  C8	30.864	22.160	62.643	C.2	1	RES1	0.000	
15	  C9	29.627	19.955	62.093	C.2	1	RES1	0.000	
16	  N9	29.402	18.746	62.676	N.2	1	RES1	0.000	
17	 C10	29.238	20.153	60.755	C.2	1	RES1	0.000	
18	 N10	30.735	22.617	61.416	N.2	1	RES1	0.000	
19	 C11	28.628	19.148	60.022	C.2	1	RES1	0.000	
20	 N11	31.155	24.313	59.767	N.2	1	RES1	0.000	
21	 C12	28.394	17.885	60.624	C.2	1	RES1	0.000	
22	 C13	28.415	15.510	59.729	C.3	1	RES1	0.000	
23	 C14	27.974	14.819	58.453	C.3	1	RES1	0.000	
24	 C34	25.750	15.658	59.039	C.3	1	RES1	0.000	
25	 C35	26.471	17.005	59.185	C.3	1	RES1	0.000	
26	 C36	28.810	17.769	61.955	C.2	1	RES1	0.000	
27	 C37	31.301	23.800	61.083	C.2	1	RES1	0.000	
28	 C38	30.401	23.508	58.764	C.3	1	RES1	0.000	
29	 C39	31.277	22.902	57.685	C.3	1	RES1	0.000	
30	 C40	30.358	22.829	56.473	C.3	1	RES1	0.000	
31	 C41	29.539	24.120	56.568	C.3	1	RES1	0.000	
32	 C42	29.276	24.264	58.048	C.3	1	RES1	0.000	
33	 C43	31.733	25.542	59.361	C.2	1	RES1	0.000	
@<TRIPOS>BOND
1 1 4 1
2 2 12 ar
3 2 14 ar
4 3 4 2
5 4 6 1
6 5 14 1
7 5 15 1
8 6 8 ar
9 6 33 ar
10 7 25 1
11 8 10 1
12 8 11 ar
13 11 12 ar
14 15 16 ar
15 15 17 ar
16 17 19 ar
17 14 18 ar
18 18 27 ar
19 19 21 ar
20 20 27 ar
21 20 28 1
22 20 33 ar
23 7 21 1
24 21 26 ar
25 7 22 1
26 22 23 1
27 9 23 1
28 9 24 1
29 24 25 1
30 16 26 ar
31 11 27 ar
32 28 29 1
33 28 32 1
34 29 30 1
35 30 31 1
36 31 32 1
37 13 33 2
@<TRIPOS>SUBSTRUCTURE
1	RES1	1	GROUP	1 ****	RES
