# created with PyMOL 2.5.2
@<TRIPOS>MOLECULE
CDK6_2EUF_TargetProtein
33 37 1                 
SMALL
USER_CHARGES
@<TRIPOS>ATOM
1	  C1	34.767	27.614	59.528	C.3	1	RES1	0.000	
2	  N1	31.367	22.947	63.552	N.2	1	RES1	0.000	
3	  O1	32.678	28.682	60.015	O.2	1	RES1	0.000	
4	  C2	33.313	27.627	59.986	C.2	1	RES1	0.000	
5	  N2	30.240	21.007	62.748	N.pl3	1	RES1	0.000	
6	  C3	32.685	26.363	60.363	C.2	1	RES1	0.000	
7	  N3	27.846	16.924	59.636	N.pl3	1	RES1	0.000	
8	  C4	32.631	25.980	61.653	C.2	1	RES1	0.000	
9	  N4	26.648	14.575	58.407	N.3	1	RES1	0.000	
10	  C5	33.146	26.804	62.813	C.3	1	RES1	0.000	
11	  C6	31.988	24.682	61.977	C.2	1	RES1	0.000	
12	  C7	31.942	24.147	63.267	C.2	1	RES1	0.000	
13	  C8	30.843	22.246	62.542	C.2	1	RES1	0.000	
14	  N8	29.402	18.854	62.461	N.2	1	RES1	0.000	
15	  O8	32.174	25.899	58.131	O.2	1	RES1	0.000	
16	  C9	29.639	20.036	61.916	C.2	1	RES1	0.000	
17	  N9	30.850	22.672	61.276	N.2	1	RES1	0.000	
18	 C10	29.294	20.276	60.581	C.2	1	RES1	0.000	
19	 N10	31.478	24.301	59.636	N.2	1	RES1	0.000	
20	 C11	28.719	19.269	59.825	C.2	1	RES1	0.000	
21	 C12	28.436	18.021	60.368	C.2	1	RES1	0.000	
22	 C13	28.568	15.639	59.599	C.3	1	RES1	0.000	
23	 C14	28.101	14.747	58.420	C.3	1	RES1	0.000	
24	 C34	26.014	15.890	58.304	C.3	1	RES1	0.000	
25	 C35	26.380	16.855	59.441	C.3	1	RES1	0.000	
26	 C36	28.836	17.886	61.719	C.2	1	RES1	0.000	
27	 C37	31.429	23.861	60.989	C.2	1	RES1	0.000	
28	 C38	30.845	23.487	58.542	C.3	1	RES1	0.000	
29	 C39	29.995	24.254	57.536	C.3	1	RES1	0.000	
30	 C40	28.659	23.523	57.461	C.3	1	RES1	0.000	
31	 C41	28.958	22.122	57.978	C.3	1	RES1	0.000	
32	 C42	29.957	22.346	59.088	C.3	1	RES1	0.000	
33	 C43	32.071	25.528	59.263	C.2	1	RES1	0.000	
@<TRIPOS>BOND
1 1 4 1
2 2 12 ar
3 2 13 ar
4 3 4 2
5 4 6 1
6 5 13 1
7 5 16 1
8 6 8 ar
9 6 33 ar
10 7 25 1
11 8 10 1
12 8 11 ar
13 11 12 ar
14 13 17 ar
15 14 16 ar
16 16 18 ar
17 18 20 ar
18 19 27 ar
19 19 28 1
20 19 33 ar
21 20 21 ar
22 7 21 1
23 21 26 ar
24 7 22 1
25 22 23 1
26 9 23 1
27 9 24 1
28 24 25 1
29 14 26 ar
30 11 27 ar
31 17 27 ar
32 28 29 1
33 28 32 1
34 29 30 1
35 30 31 1
36 31 32 1
37 15 33 2
@<TRIPOS>SUBSTRUCTURE
1	RES1	1	GROUP	1 ****	RES
