# created with PyMOL 2.5.2
@<TRIPOS>MOLECULE
CDK6_2EUF_TargetProtein
33 37 1                 
SMALL
USER_CHARGES
@<TRIPOS>ATOM
1	  C1	34.662	27.623	59.456	C.3	1	RES1	0.000	
2	  N1	31.445	22.970	63.570	N.2	1	RES1	0.000	
3	  O1	32.614	28.727	59.982	O.2	1	RES1	0.000	
4	  C2	33.232	27.646	59.945	C.2	1	RES1	0.000	
5	  N2	30.332	20.982	62.805	N.pl3	1	RES1	0.000	
6	  C3	32.609	26.368	60.359	C.2	1	RES1	0.000	
7	  N3	27.834	16.967	59.660	N.pl3	1	RES1	0.000	
8	  C4	32.576	25.977	61.641	C.2	1	RES1	0.000	
9	  N4	26.723	14.869	57.981	N.3	1	RES1	0.000	
10	  C5	33.125	26.834	62.779	C.3	1	RES1	0.000	
11	  C6	32.004	24.684	62.003	C.2	1	RES1	0.000	
12	  C7	31.977	24.137	63.265	C.2	1	RES1	0.000	
13	  C8	30.923	22.223	62.595	C.2	1	RES1	0.000	
14	  N8	29.491	18.814	62.467	N.2	1	RES1	0.000	
15	  O8	32.072	25.867	58.130	O.2	1	RES1	0.000	
16	  C9	29.714	20.030	61.942	C.2	1	RES1	0.000	
17	  N9	30.888	22.655	61.339	N.2	1	RES1	0.000	
18	 C10	29.324	20.312	60.629	C.2	1	RES1	0.000	
19	 N10	31.424	24.296	59.636	N.2	1	RES1	0.000	
20	 C11	28.712	19.314	59.888	C.2	1	RES1	0.000	
21	 C12	28.481	18.028	60.406	C.2	1	RES1	0.000	
22	 C13	28.577	15.675	59.473	C.3	1	RES1	0.000	
23	 C14	27.622	14.542	59.100	C.3	1	RES1	0.000	
24	 C33	25.942	16.079	58.323	C.3	1	RES1	0.000	
25	 C34	26.804	17.284	58.667	C.3	1	RES1	0.000	
26	 C35	28.911	17.869	61.711	C.2	1	RES1	0.000	
27	 C36	31.435	23.875	60.999	C.2	1	RES1	0.000	
28	 C37	30.811	23.433	58.612	C.3	1	RES1	0.000	
29	 C38	29.890	24.099	57.589	C.3	1	RES1	0.000	
30	 C39	28.632	23.262	57.582	C.3	1	RES1	0.000	
31	 C40	29.063	21.897	58.075	C.3	1	RES1	0.000	
32	 C41	30.043	22.233	59.155	C.3	1	RES1	0.000	
33	 C42	32.010	25.494	59.260	C.2	1	RES1	0.000	
@<TRIPOS>BOND
1 1 4 1
2 2 12 ar
3 2 13 ar
4 3 4 2
5 4 6 1
6 5 13 1
7 5 16 1
8 6 8 ar
9 6 33 ar
10 7 25 1
11 8 10 1
12 8 11 ar
13 11 12 ar
14 13 17 ar
15 14 16 ar
16 16 18 ar
17 18 20 ar
18 19 27 ar
19 19 28 1
20 19 33 ar
21 20 21 ar
22 7 21 1
23 21 26 ar
24 7 22 1
25 22 23 1
26 9 23 1
27 9 24 1
28 24 25 1
29 14 26 ar
30 11 27 ar
31 17 27 ar
32 28 29 1
33 28 32 1
34 29 30 1
35 30 31 1
36 31 32 1
37 15 33 2
@<TRIPOS>SUBSTRUCTURE
1	RES1	1	GROUP	1 ****	RES
