# created with PyMOL 2.5.2
@<TRIPOS>MOLECULE
CDK6_2EUF_TargetProtein
33 37 1                 
SMALL
USER_CHARGES
@<TRIPOS>ATOM
1	  C1	34.692	27.504	59.399	C.3	1	RES1	0.000	
2	  N1	31.417	22.984	63.647	N.2	1	RES1	0.000	
3	  O1	32.629	28.611	59.898	O.2	1	RES1	0.000	
4	  C2	33.248	27.558	59.873	C.2	1	RES1	0.000	
5	  N2	30.287	21.001	62.904	N.pl3	1	RES1	0.000	
6	  C3	32.617	26.283	60.310	C.2	1	RES1	0.000	
7	  N3	27.890	17.016	59.649	N.pl3	1	RES1	0.000	
8	  C4	32.587	25.948	61.604	C.2	1	RES1	0.000	
9	  N4	26.849	14.981	57.854	N.3	1	RES1	0.000	
10	  C5	33.156	26.840	62.709	C.3	1	RES1	0.000	
11	  C6	32.019	24.664	61.987	C.2	1	RES1	0.000	
12	  C7	31.963	24.178	63.281	C.2	1	RES1	0.000	
13	  C8	30.873	22.227	62.689	C.2	1	RES1	0.000	
14	  N8	29.491	18.827	62.533	N.2	1	RES1	0.000	
15	  O8	32.069	25.777	58.074	O.2	1	RES1	0.000	
16	  C9	29.686	20.065	62.020	C.2	1	RES1	0.000	
17	  N9	30.854	22.642	61.374	N.2	1	RES1	0.000	
18	 C10	29.314	20.336	60.697	C.2	1	RES1	0.000	
19	 N10	31.401	24.218	59.681	N.2	1	RES1	0.000	
20	 C11	28.738	19.365	59.913	C.2	1	RES1	0.000	
21	 C12	28.497	18.076	60.424	C.2	1	RES1	0.000	
22	 C13	28.618	15.745	59.475	C.3	1	RES1	0.000	
23	 C14	27.689	14.611	59.019	C.3	1	RES1	0.000	
24	 C32	26.046	16.140	58.171	C.3	1	RES1	0.000	
25	 C33	26.924	17.353	58.599	C.3	1	RES1	0.000	
26	 C34	28.925	17.895	61.791	C.2	1	RES1	0.000	
27	 C35	31.404	23.819	61.041	C.2	1	RES1	0.000	
28	 C36	30.773	23.370	58.638	C.3	1	RES1	0.000	
29	 C37	29.888	24.094	57.617	C.3	1	RES1	0.000	
30	 C38	28.562	23.346	57.599	C.3	1	RES1	0.000	
31	 C39	28.890	21.967	58.109	C.3	1	RES1	0.000	
32	 C40	29.901	22.210	59.200	C.3	1	RES1	0.000	
33	 C41	32.010	25.415	59.250	C.2	1	RES1	0.000	
@<TRIPOS>BOND
1 1 4 1
2 2 12 ar
3 2 13 ar
4 3 4 2
5 4 6 1
6 5 13 1
7 5 16 1
8 6 8 ar
9 6 33 ar
10 7 25 1
11 8 10 1
12 8 11 ar
13 11 12 ar
14 13 17 ar
15 14 16 ar
16 16 18 ar
17 18 20 ar
18 19 27 ar
19 19 28 1
20 19 33 ar
21 20 21 ar
22 7 21 1
23 21 26 ar
24 7 22 1
25 22 23 1
26 9 23 1
27 9 24 1
28 24 25 1
29 14 26 ar
30 11 27 ar
31 17 27 ar
32 28 29 1
33 28 32 1
34 29 30 1
35 30 31 1
36 31 32 1
37 15 33 2
@<TRIPOS>SUBSTRUCTURE
1	RES1	1	GROUP	1 ****	RES
