# created with PyMOL 2.5.2
@<TRIPOS>MOLECULE
CDK6_2EUF_TargetProtein
33 37 1                 
SMALL
USER_CHARGES
@<TRIPOS>ATOM
1	  C1	34.678	27.621	59.516	C.3	1	RES1	0.000	
2	  N1	31.446	22.912	63.538	N.2	1	RES1	0.000	
3	  O1	32.677	28.711	60.090	O.2	1	RES1	0.000	
4	  C2	33.259	27.679	59.988	C.2	1	RES1	0.000	
5	  N2	30.325	20.964	62.750	N.pl3	1	RES1	0.000	
6	  C3	32.613	26.375	60.344	C.2	1	RES1	0.000	
7	  N3	27.820	16.909	59.712	N.pl3	1	RES1	0.000	
8	  C4	32.614	26.000	61.641	C.2	1	RES1	0.000	
9	  N4	26.820	14.776	58.036	N.3	1	RES1	0.000	
10	  C5	33.145	26.809	62.785	C.3	1	RES1	0.000	
11	  C6	32.018	24.666	61.975	C.2	1	RES1	0.000	
12	  C7	32.014	24.130	63.216	C.2	1	RES1	0.000	
13	  C8	30.912	22.215	62.534	C.2	1	RES1	0.000	
14	  N8	29.617	18.786	62.452	N.2	1	RES1	0.000	
15	  O8	32.080	25.950	58.131	O.2	1	RES1	0.000	
16	  C9	29.699	20.007	61.950	C.2	1	RES1	0.000	
17	  N9	30.880	22.664	61.274	N.2	1	RES1	0.000	
18	 C10	29.179	20.299	60.666	C.2	1	RES1	0.000	
19	 N10	31.432	24.331	59.628	N.2	1	RES1	0.000	
20	 C11	28.550	19.288	59.934	C.2	1	RES1	0.000	
21	 C12	28.438	17.984	60.451	C.2	1	RES1	0.000	
22	 C13	27.144	17.199	58.431	C.3	1	RES1	0.000	
23	 C14	26.195	16.109	58.028	C.3	1	RES1	0.000	
24	 C32	27.308	14.486	59.378	C.3	1	RES1	0.000	
25	 C33	28.310	15.527	59.870	C.3	1	RES1	0.000	
26	 C34	29.026	17.797	61.710	C.2	1	RES1	0.000	
27	 C35	31.436	23.887	60.975	C.2	1	RES1	0.000	
28	 C36	30.800	23.502	58.574	C.3	1	RES1	0.000	
29	 C37	29.880	24.225	57.567	C.3	1	RES1	0.000	
30	 C38	28.594	23.409	57.540	C.3	1	RES1	0.000	
31	 C39	28.999	22.029	58.000	C.3	1	RES1	0.000	
32	 C40	29.992	22.289	59.083	C.3	1	RES1	0.000	
33	 C41	32.000	25.531	59.257	C.2	1	RES1	0.000	
@<TRIPOS>BOND
1 1 4 1
2 2 12 ar
3 2 13 ar
4 3 4 2
5 4 6 1
6 5 13 1
7 5 16 1
8 6 8 ar
9 6 33 ar
10 7 25 1
11 8 10 1
12 8 11 ar
13 11 12 ar
14 13 17 ar
15 14 16 ar
16 16 18 ar
17 18 20 ar
18 19 27 ar
19 19 28 1
20 19 33 ar
21 20 21 ar
22 7 21 1
23 21 26 ar
24 7 22 1
25 22 23 1
26 9 23 1
27 9 24 1
28 24 25 1
29 14 26 ar
30 11 27 ar
31 17 27 ar
32 28 29 1
33 28 32 1
34 29 30 1
35 30 31 1
36 31 32 1
37 15 33 2
@<TRIPOS>SUBSTRUCTURE
1	RES1	1	GROUP	1 ****	RES
