# created with PyMOL 2.5.2
@<TRIPOS>MOLECULE
PDE_5ML8_TargetProtein
41 45 1                 
SMALL
USER_CHARGES
@<TRIPOS>ATOM
1	 CL1	-29.433	10.823	-10.700	Cl	1	RES1	0.000	
2	  S1	-18.909	4.314	-16.580	S.O2	1	RES1	0.000	
3	  S2	-23.117	7.316	-12.882	S.O2	1	RES1	0.000	
4	  N4	-18.436	3.001	-15.540	N.3	1	RES1	0.000	
5	  N5	-14.890	0.122	-14.432	N.3	1	RES1	0.000	
6	  N6	-24.109	8.180	-14.006	N.3	1	RES1	0.000	
7	  O6	-17.766	5.200	-16.732	O.2	1	RES1	0.000	
8	  O7	-19.568	3.779	-17.737	O.2	1	RES1	0.000	
9	  O8	-23.916	6.275	-12.215	O.2	1	RES1	0.000	
10	  O9	-22.409	8.296	-12.056	O.2	1	RES1	0.000	
11	 C18	-18.701	-1.824	-17.137	C.2	1	RES1	0.000	
12	 C19	-19.017	-0.741	-17.910	C.2	1	RES1	0.000	
13	 C20	-19.307	0.496	-17.348	C.2	1	RES1	0.000	
14	 C21	-19.263	0.652	-15.939	C.2	1	RES1	0.000	
15	 C22	-19.521	1.999	-15.339	C.3	1	RES1	0.000	
16	 C23	-17.752	3.368	-14.261	C.3	1	RES1	0.000	
17	 C24	-16.461	2.586	-14.057	C.3	1	RES1	0.000	
18	 C25	-15.724	2.251	-15.357	C.3	1	RES1	0.000	
19	 C26	-14.514	1.337	-15.122	C.3	1	RES1	0.000	
20	 C27	-15.501	0.395	-13.134	C.3	1	RES1	0.000	
21	 C28	-16.745	1.279	-13.275	C.3	1	RES1	0.000	
22	 C29	-20.109	5.190	-15.581	C.2	1	RES1	0.000	
23	 C30	-19.713	6.321	-14.869	C.2	1	RES1	0.000	
24	 C31	-20.632	6.981	-14.035	C.2	1	RES1	0.000	
25	 C32	-21.942	6.473	-13.922	C.2	1	RES1	0.000	
26	 C33	-25.542	7.692	-14.091	C.3	1	RES1	0.000	
27	 C34	-26.509	8.494	-13.210	C.2	1	RES1	0.000	
28	 C35	-26.041	9.348	-12.192	C.2	1	RES1	0.000	
29	 C36	-26.970	10.046	-11.424	C.2	1	RES1	0.000	
30	 C37	-28.335	9.922	-11.650	C.2	1	RES1	0.000	
31	 C38	-28.795	9.084	-12.663	C.2	1	RES1	0.000	
32	 C39	-27.881	8.367	-13.434	C.2	1	RES1	0.000	
33	 C40	-23.927	9.695	-14.062	C.3	1	RES1	0.000	
34	 C41	-25.237	10.477	-13.863	C.3	1	RES1	0.000	
35	 C42	-25.390	11.348	-15.081	C.3	1	RES1	0.000	
36	 C43	-23.980	11.524	-15.597	C.3	1	RES1	0.000	
37	 C44	-23.352	10.162	-15.375	C.3	1	RES1	0.000	
38	 C45	-22.328	5.331	-14.620	C.2	1	RES1	0.000	
39	 C46	-21.400	4.685	-15.459	C.2	1	RES1	0.000	
40	 C47	-18.962	-0.455	-15.153	C.2	1	RES1	0.000	
41	 C48	-18.674	-1.701	-15.738	C.2	1	RES1	0.000	
@<TRIPOS>BOND
1 1 30 1
2 2 4 1
3 2 7 2
4 2 8 2
5 2 22 1
6 3 6 1
7 3 9 2
8 3 10 2
9 3 25 1
10 11 12 ar
11 11 41 ar
12 12 13 ar
13 13 14 ar
14 14 15 1
15 14 40 ar
16 4 15 1
17 4 16 1
18 16 17 1
19 17 18 1
20 17 21 1
21 18 19 1
22 5 19 1
23 5 20 1
24 20 21 1
25 22 23 ar
26 22 39 ar
27 23 24 ar
28 24 25 ar
29 25 38 ar
30 6 26 1
31 26 27 1
32 27 28 ar
33 27 32 ar
34 28 29 ar
35 29 30 ar
36 30 31 ar
37 31 32 ar
38 6 33 1
39 33 34 1
40 33 37 1
41 34 35 1
42 35 36 1
43 36 37 1
44 38 39 ar
45 40 41 ar
@<TRIPOS>SUBSTRUCTURE
1	RES1	1	GROUP	1 ****	RES
