# created with PyMOL 2.5.2
@<TRIPOS>MOLECULE
PDE_5ML8_TargetProtein
41 45 1                 
SMALL
USER_CHARGES
@<TRIPOS>ATOM
1	 CL1	-29.910	10.967	-10.779	Cl	1	RES1	0.000	
2	  S1	-19.322	4.078	-15.911	S.O2	1	RES1	0.000	
3	  S2	-23.484	7.306	-12.261	S.O2	1	RES1	0.000	
4	  N4	-19.543	2.452	-15.440	N.3	1	RES1	0.000	
5	  N5	-14.557	2.906	-14.581	N.3	1	RES1	0.000	
6	  N6	-24.065	8.520	-13.329	N.3	1	RES1	0.000	
7	  O7	-17.972	4.528	-15.497	O.3	1	RES1	0.000	
8	  O8	-19.763	4.287	-17.284	O.2	1	RES1	0.000	
9	  O9	-22.724	7.878	-11.186	O.2	1	RES1	0.000	
10	 O10	-24.581	6.374	-11.962	O.2	1	RES1	0.000	
11	 C20	-17.651	-1.978	-17.337	C.2	1	RES1	0.000	
12	 C21	-17.197	-0.731	-17.655	C.2	1	RES1	0.000	
13	 C22	-17.993	0.386	-17.386	C.2	1	RES1	0.000	
14	 C23	-19.252	0.236	-16.769	C.2	1	RES1	0.000	
15	 C24	-20.106	1.462	-16.473	C.3	1	RES1	0.000	
16	 C25	-18.748	1.904	-14.269	C.3	1	RES1	0.000	
17	 C26	-17.268	1.798	-14.608	C.3	1	RES1	0.000	
18	 C27	-16.379	1.752	-13.360	C.3	1	RES1	0.000	
19	 C28	-14.909	1.773	-13.719	C.3	1	RES1	0.000	
20	 C29	-15.328	2.892	-15.827	C.3	1	RES1	0.000	
21	 C30	-16.835	2.908	-15.529	C.3	1	RES1	0.000	
22	 C31	-20.509	4.976	-14.865	C.2	1	RES1	0.000	
23	 C32	-20.030	5.761	-13.816	C.2	1	RES1	0.000	
24	 C33	-20.930	6.459	-13.046	C.2	1	RES1	0.000	
25	 C34	-22.310	6.375	-13.314	C.2	1	RES1	0.000	
26	 C35	-25.454	8.290	-13.881	C.3	1	RES1	0.000	
27	 C36	-26.559	8.970	-13.110	C.2	1	RES1	0.000	
28	 C37	-26.343	9.446	-11.821	C.2	1	RES1	0.000	
29	 C38	-27.358	10.087	-11.096	C.2	1	RES1	0.000	
30	 C39	-28.607	10.189	-11.682	C.2	1	RES1	0.000	
31	 C40	-28.846	9.730	-12.965	C.2	1	RES1	0.000	
32	 C41	-27.830	9.115	-13.664	C.2	1	RES1	0.000	
33	 C42	-23.096	9.132	-14.369	C.3	1	RES1	0.000	
34	 C43	-23.012	10.631	-14.264	C.3	1	RES1	0.000	
35	 C44	-22.661	11.163	-15.658	C.3	1	RES1	0.000	
36	 C45	-22.780	9.932	-16.566	C.3	1	RES1	0.000	
37	 C46	-23.603	8.957	-15.804	C.3	1	RES1	0.000	
38	 C47	-22.801	5.543	-14.351	C.2	1	RES1	0.000	
39	 C48	-21.880	4.847	-15.119	C.2	1	RES1	0.000	
40	 C49	-19.684	-1.052	-16.476	C.2	1	RES1	0.000	
41	 C50	-18.900	-2.166	-16.749	C.2	1	RES1	0.000	
@<TRIPOS>BOND
1 1 30 1
2 2 4 1
3 2 7 1
4 2 8 2
5 2 22 1
6 3 6 1
7 3 9 2
8 3 25 1
9 3 10 2
10 11 12 ar
11 11 41 ar
12 12 13 ar
13 13 14 ar
14 14 15 1
15 14 40 ar
16 4 15 1
17 4 16 1
18 16 17 1
19 17 18 1
20 17 21 1
21 18 19 1
22 5 19 1
23 5 20 1
24 20 21 1
25 22 23 ar
26 22 39 ar
27 23 24 ar
28 24 25 ar
29 25 38 ar
30 6 26 1
31 26 27 1
32 27 28 ar
33 27 32 ar
34 28 29 ar
35 29 30 ar
36 30 31 ar
37 31 32 ar
38 6 33 1
39 33 34 1
40 33 37 1
41 34 35 1
42 35 36 1
43 36 37 1
44 38 39 ar
45 40 41 ar
@<TRIPOS>SUBSTRUCTURE
1	RES1	1	GROUP	1 ****	RES
