# created with PyMOL 2.5.2
@<TRIPOS>MOLECULE
PDE_5ML8_TargetProtein
41 46 1                 
SMALL
USER_CHARGES
@<TRIPOS>ATOM
1	 CL1	-29.965	10.891	-10.582	Cl	1	RES1	0.000	
2	  S1	-19.336	4.136	-16.025	S.O2	1	RES1	0.000	
3	  S2	-23.570	7.286	-12.438	S.O2	1	RES1	0.000	
4	  N4	-19.736	2.505	-15.552	N.3	1	RES1	0.000	
5	  N5	-14.745	3.186	-14.529	N.3	1	RES1	0.000	
6	  N6	-24.237	8.498	-13.487	N.3	1	RES1	0.000	
7	  O8	-19.664	4.303	-17.411	O.2	1	RES1	0.000	
8	  O9	-18.007	4.435	-15.543	O.3	1	RES1	0.000	
9	 O10	-22.873	7.930	-11.380	O.2	1	RES1	0.000	
10	 O11	-24.588	6.287	-12.121	O.2	1	RES1	0.000	
11	 C22	-17.715	-1.949	-16.933	C.2	1	RES1	0.000	
12	 C23	-17.155	-0.686	-17.187	C.2	1	RES1	0.000	
13	 C24	-17.962	0.427	-17.099	C.2	1	RES1	0.000	
14	 C25	-19.332	0.352	-16.751	C.2	1	RES1	0.000	
15	 C26	-20.166	1.572	-16.664	C.3	1	RES1	0.000	
16	 C27	-18.867	1.838	-14.514	C.3	1	RES1	0.000	
17	 C28	-17.393	1.925	-14.879	C.3	1	RES1	0.000	
18	 C29	-16.505	1.710	-13.653	C.3	1	RES1	0.000	
19	 C30	-15.027	1.861	-13.953	C.3	1	RES1	0.000	
20	 C31	-15.498	3.369	-15.770	C.3	1	RES1	0.000	
21	 C32	-17.002	3.270	-15.543	C.3	1	RES1	0.000	
22	 C33	-20.515	5.118	-15.075	C.2	1	RES1	0.000	
23	 C34	-20.074	5.887	-13.996	C.2	1	RES1	0.000	
24	 C35	-21.031	6.563	-13.203	C.2	1	RES1	0.000	
25	 C36	-22.366	6.432	-13.471	C.2	1	RES1	0.000	
26	 C37	-25.683	8.236	-13.908	C.3	1	RES1	0.000	
27	 C38	-26.738	8.923	-13.073	C.2	1	RES1	0.000	
28	 C39	-26.448	9.452	-11.814	C.2	1	RES1	0.000	
29	 C40	-27.441	10.051	-11.040	C.2	1	RES1	0.000	
30	 C41	-28.735	10.166	-11.552	C.2	1	RES1	0.000	
31	 C42	-29.058	9.675	-12.800	C.2	1	RES1	0.000	
32	 C43	-28.025	9.071	-13.575	C.2	1	RES1	0.000	
33	 C44	-23.411	8.942	-14.670	C.3	1	RES1	0.000	
34	 C45	-21.979	8.382	-14.681	C.3	1	RES1	0.000	
35	 C46	-21.255	9.306	-15.644	C.3	1	RES1	0.000	
36	 C47	-21.919	10.638	-15.574	C.3	1	RES1	0.000	
37	 C48	-23.134	10.437	-14.661	C.3	1	RES1	0.000	
38	 C49	-22.802	5.670	-14.580	C.2	1	RES1	0.000	
39	 C50	-21.905	4.964	-15.347	C.2	1	RES1	0.000	
40	 C51	-19.874	-0.921	-16.497	C.2	1	RES1	0.000	
41	 C52	-19.041	-2.050	-16.603	C.2	1	RES1	0.000	
@<TRIPOS>BOND
1 1 30 1
2 2 4 1
3 2 7 2
4 2 8 1
5 2 22 1
6 3 6 1
7 3 25 1
8 3 9 2
9 3 10 2
10 11 12 ar
11 11 41 ar
12 12 13 ar
13 13 14 ar
14 14 15 1
15 14 40 ar
16 4 15 1
17 4 16 1
18 16 17 1
19 17 18 1
20 17 21 1
21 18 19 1
22 5 19 1
23 5 20 1
24 20 21 1
25 8 21 1
26 22 23 ar
27 22 39 ar
28 23 24 ar
29 24 25 ar
30 25 38 ar
31 6 26 1
32 26 27 1
33 27 28 ar
34 27 32 ar
35 28 29 ar
36 29 30 ar
37 30 31 ar
38 31 32 ar
39 6 33 1
40 33 34 1
41 33 37 1
42 34 35 1
43 35 36 1
44 36 37 1
45 38 39 ar
46 40 41 ar
@<TRIPOS>SUBSTRUCTURE
1	RES1	1	GROUP	1 ****	RES
