# created with PyMOL 2.5.2
@<TRIPOS>MOLECULE
BRD4_6C7R_TargetProtein
35 40 1                 
SMALL
USER_CHARGES
@<TRIPOS>ATOM
1	  C1	-3.145	6.499	25.396	C.3	1	RES1	0.000	
2	  N1	-1.904	8.383	24.325	N.2	1	RES1	0.000	
3	  O1	4.971	6.962	26.692	O.2	1	RES1	0.000	
4	  C2	-2.596	7.931	25.517	C.3	1	RES1	0.000	
5	  N2	-2.622	8.974	23.364	N.2	1	RES1	0.000	
6	  C3	-1.695	9.250	22.421	C.2	1	RES1	0.000	
7	  N3	0.334	7.712	24.933	N.pl3	1	RES1	0.000	
8	  C4	-2.057	9.987	21.118	C.3	1	RES1	0.000	
9	  N4	2.551	6.879	25.328	N.2	1	RES1	0.000	
10	  C5	-3.345	9.637	20.427	C.3	1	RES1	0.000	
11	  C6	-2.050	9.279	19.798	C.3	1	RES1	0.000	
12	  O6	-3.079	5.451	21.018	O.3	1	RES1	0.000	
13	  C7	-0.386	8.885	22.817	C.2	1	RES1	0.000	
14	  O7	-2.472	2.314	17.769	O.2	1	RES1	0.000	
15	  C8	-0.559	8.303	24.046	C.2	1	RES1	0.000	
16	  C9	1.348	6.798	24.658	C.2	1	RES1	0.000	
17	  N9	3.489	4.949	24.190	N.2	1	RES1	0.000	
18	 C10	3.517	5.979	25.088	C.2	1	RES1	0.000	
19	 N10	-3.551	2.034	18.612	N.2	1	RES1	0.000	
20	 C11	4.767	6.099	25.839	C.2	1	RES1	0.000	
21	 N11	1.994	4.016	22.595	N.2	1	RES1	0.000	
22	 C30	2.299	4.914	23.543	C.2	1	RES1	0.000	
23	 C31	1.230	5.769	23.699	C.2	1	RES1	0.000	
24	 C32	0.227	5.323	22.757	C.2	1	RES1	0.000	
25	 C33	-1.065	5.752	22.414	C.2	1	RES1	0.000	
26	 C34	-1.808	5.076	21.419	C.2	1	RES1	0.000	
27	 C35	-3.755	6.451	21.780	C.3	1	RES1	0.000	
28	 C36	-1.227	3.953	20.763	C.2	1	RES1	0.000	
29	 C37	-1.944	3.227	19.751	C.2	1	RES1	0.000	
30	 C38	-1.538	3.035	18.451	C.2	1	RES1	0.000	
31	 C39	-0.315	3.434	17.703	C.3	1	RES1	0.000	
32	 C40	-3.223	2.568	19.806	C.2	1	RES1	0.000	
33	 C41	-4.171	2.447	20.934	C.3	1	RES1	0.000	
34	 C42	0.051	3.550	21.098	C.2	1	RES1	0.000	
35	 C43	0.751	4.232	22.086	C.2	1	RES1	0.000	
@<TRIPOS>BOND
1 1 4 1
2 2 4 1
3 2 5 ar
4 2 15 ar
5 3 20 2
6 5 6 ar
7 6 8 1
8 6 13 ar
9 7 15 1
10 7 16 1
11 8 10 1
12 8 11 1
13 9 16 ar
14 10 11 1
15 13 15 ar
16 9 18 ar
17 17 18 ar
18 18 20 1
19 14 19 ar
20 19 32 ar
21 21 22 ar
22 21 35 ar
23 17 22 ar
24 22 23 ar
25 16 23 ar
26 23 24 ar
27 24 25 ar
28 24 35 ar
29 25 26 ar
30 12 26 1
31 26 28 ar
32 12 27 1
33 28 29 1
34 28 34 ar
35 29 30 ar
36 29 32 ar
37 14 30 ar
38 30 31 1
39 32 33 1
40 34 35 ar
@<TRIPOS>SUBSTRUCTURE
1	RES1	1	GROUP	1 ****	RES
