# created with PyMOL 2.5.2
@<TRIPOS>MOLECULE
CDK6_2EUF_TargetProtein
33 37 1                 
SMALL
USER_CHARGES
@<TRIPOS>ATOM
1	  C1	34.778	27.640	59.594	C.3	1	RES1	0.000	
2	  N1	31.355	22.969	63.536	N.2	1	RES1	0.000	
3	  O1	32.713	28.715	60.073	O.2	1	RES1	0.000	
4	  C2	33.341	27.688	60.020	C.2	1	RES1	0.000	
5	  N2	30.225	21.009	62.692	N.pl3	1	RES1	0.000	
6	  C3	32.682	26.382	60.394	C.2	1	RES1	0.000	
7	  N3	27.852	16.854	59.667	N.pl3	1	RES1	0.000	
8	  C4	32.606	25.996	61.653	C.2	1	RES1	0.000	
9	  N4	26.599	14.541	58.474	N.3	1	RES1	0.000	
10	  C5	33.139	26.814	62.841	C.3	1	RES1	0.000	
11	  C6	31.997	24.695	61.990	C.2	1	RES1	0.000	
12	  C7	31.939	24.109	63.258	C.2	1	RES1	0.000	
13	  O7	32.208	25.960	58.134	O.2	1	RES1	0.000	
14	  C8	30.816	22.238	62.486	C.2	1	RES1	0.000	
15	  C9	29.643	20.034	61.874	C.2	1	RES1	0.000	
16	 C10	29.295	20.232	60.526	C.2	1	RES1	0.000	
17	 C11	28.722	19.204	59.803	C.2	1	RES1	0.000	
18	 N11	29.412	18.821	62.455	N.2	1	RES1	0.000	
19	 C12	28.445	17.941	60.381	C.2	1	RES1	0.000	
20	 N12	30.856	22.712	61.225	N.2	1	RES1	0.000	
21	 C13	28.553	15.551	59.612	C.3	1	RES1	0.000	
22	 N13	31.477	24.365	59.615	N.2	1	RES1	0.000	
23	 C14	28.032	14.687	58.472	C.3	1	RES1	0.000	
24	 C36	25.954	15.857	58.368	C.3	1	RES1	0.000	
25	 C37	26.383	16.824	59.518	C.3	1	RES1	0.000	
26	 C38	28.831	17.842	61.730	C.2	1	RES1	0.000	
27	 C39	31.425	23.889	60.979	C.2	1	RES1	0.000	
28	 C40	30.861	23.554	58.521	C.3	1	RES1	0.000	
29	 C41	29.977	24.319	57.520	C.3	1	RES1	0.000	
30	 C42	28.667	23.554	57.429	C.3	1	RES1	0.000	
31	 C43	29.031	22.143	57.888	C.3	1	RES1	0.000	
32	 C44	29.996	22.385	59.024	C.3	1	RES1	0.000	
33	 C45	32.095	25.536	59.276	C.2	1	RES1	0.000	
@<TRIPOS>BOND
1 1 4 1
2 2 12 ar
3 2 14 ar
4 3 4 2
5 4 6 1
6 5 14 1
7 5 15 1
8 6 8 ar
9 6 33 ar
10 7 25 1
11 8 10 1
12 8 11 ar
13 11 12 ar
14 15 16 ar
15 16 17 ar
16 17 19 ar
17 15 18 ar
18 18 26 ar
19 7 19 1
20 19 26 ar
21 14 20 ar
22 20 27 ar
23 7 21 1
24 21 23 1
25 22 27 ar
26 22 28 1
27 22 33 ar
28 9 23 1
29 9 24 1
30 24 25 1
31 11 27 ar
32 28 29 1
33 28 32 1
34 29 30 1
35 30 31 1
36 31 32 1
37 13 33 2
@<TRIPOS>SUBSTRUCTURE
1	RES1	1	GROUP	1 ****	RES
