# created with PyMOL 2.5.2
@<TRIPOS>MOLECULE
BRD4_6JJB_TargetProtein
26 29 1                 
SMALL
USER_CHARGES
@<TRIPOS>ATOM
1	  C1	23.013	35.646	37.026	C.3	1	RES1	0.000	
2	  N1	24.765	32.587	38.638	N.pl3	1	RES1	0.000	
3	  O1	23.996	34.646	36.846	O.3	1	RES1	0.000	
4	  S1	25.664	32.211	37.219	S.O2	1	RES1	0.000	
5	  C2	23.720	33.682	35.830	C.2	1	RES1	0.000	
6	  O2	26.736	33.169	37.078	O.2	1	RES1	0.000	
7	  C3	22.807	33.869	34.782	C.2	1	RES1	0.000	
8	  O3	25.973	30.778	37.241	O.2	1	RES1	0.000	
9	  C4	22.631	32.848	33.830	C.2	1	RES1	0.000	
10	  C5	23.371	31.681	33.909	C.2	1	RES1	0.000	
11	  C6	24.266	31.495	34.927	C.2	1	RES1	0.000	
12	  N6	21.462	28.537	40.703	N.2	1	RES1	0.000	
13	  C7	24.468	32.489	35.891	C.2	1	RES1	0.000	
14	  C8	23.965	31.519	39.214	C.2	1	RES1	0.000	
15	  C9	24.513	30.661	40.194	C.2	1	RES1	0.000	
16	  O9	19.244	28.171	39.934	O.2	1	RES1	0.000	
17	 C10	23.772	29.633	40.784	C.2	1	RES1	0.000	
18	 C11	22.450	29.459	40.351	C.2	1	RES1	0.000	
19	 C12	21.950	30.262	39.349	C.2	1	RES1	0.000	
20	 C13	20.661	29.880	39.062	C.2	1	RES1	0.000	
21	 C14	19.942	30.571	38.108	C.2	1	RES1	0.000	
22	 C15	20.592	31.642	37.430	C.2	1	RES1	0.000	
23	 C34	21.929	31.981	37.768	C.2	1	RES1	0.000	
24	 C35	22.623	31.289	38.748	C.2	1	RES1	0.000	
25	 C36	20.324	28.740	39.921	C.2	1	RES1	0.000	
26	 C37	21.644	27.498	41.716	C.3	1	RES1	0.000	
@<TRIPOS>BOND
1 1 3 1
2 2 14 1
3 3 5 1
4 2 4 1
5 4 6 2
6 4 8 2
7 4 13 1
8 5 7 ar
9 5 13 ar
10 7 9 ar
11 9 10 ar
12 10 11 ar
13 11 13 ar
14 14 15 ar
15 15 17 ar
16 17 18 ar
17 12 18 ar
18 18 19 ar
19 19 20 ar
20 19 24 ar
21 20 21 ar
22 20 25 ar
23 21 22 ar
24 22 23 ar
25 23 24 ar
26 14 24 ar
27 12 25 ar
28 16 25 2
29 12 26 1
@<TRIPOS>SUBSTRUCTURE
1	RES1	1	GROUP	1 ****	RES
