# created with PyMOL 2.5.2
@<TRIPOS>MOLECULE
BRD4_6JJB_TargetProtein
26 29 1                 
SMALL
USER_CHARGES
@<TRIPOS>ATOM
1	  C1	22.924	35.666	36.989	C.3	1	RES1	0.000	
2	  N1	24.803	32.531	38.648	N.pl3	1	RES1	0.000	
3	  O1	23.962	34.673	36.820	O.3	1	RES1	0.000	
4	  S1	25.697	32.233	37.223	S.O2	1	RES1	0.000	
5	  C2	23.737	33.720	35.829	C.2	1	RES1	0.000	
6	  O2	26.752	33.191	37.089	O.2	1	RES1	0.000	
7	  C3	22.827	33.885	34.768	C.2	1	RES1	0.000	
8	  O3	25.976	30.827	37.220	O.2	1	RES1	0.000	
9	  C4	22.651	32.872	33.825	C.2	1	RES1	0.000	
10	  C5	23.397	31.724	33.900	C.2	1	RES1	0.000	
11	  C6	24.312	31.507	34.922	C.2	1	RES1	0.000	
12	  N6	21.447	28.534	40.724	N.2	1	RES1	0.000	
13	  C7	24.473	32.543	35.917	C.2	1	RES1	0.000	
14	  C8	23.963	31.440	39.177	C.2	1	RES1	0.000	
15	  C9	24.520	30.635	40.186	C.2	1	RES1	0.000	
16	  O9	19.212	28.217	39.993	O.2	1	RES1	0.000	
17	 C10	23.759	29.591	40.775	C.2	1	RES1	0.000	
18	 C11	22.466	29.420	40.329	C.2	1	RES1	0.000	
19	 C12	21.963	30.219	39.357	C.2	1	RES1	0.000	
20	 C13	20.644	29.879	39.070	C.2	1	RES1	0.000	
21	 C14	19.944	30.570	38.115	C.2	1	RES1	0.000	
22	 C15	20.587	31.608	37.444	C.2	1	RES1	0.000	
23	 C35	21.911	31.943	37.735	C.2	1	RES1	0.000	
24	 C36	22.650	31.263	38.717	C.2	1	RES1	0.000	
25	 C37	20.306	28.748	39.979	C.2	1	RES1	0.000	
26	 C38	21.596	27.506	41.745	C.3	1	RES1	0.000	
@<TRIPOS>BOND
1 1 3 1
2 2 14 1
3 3 5 1
4 2 4 1
5 4 6 2
6 4 8 2
7 4 13 1
8 5 7 ar
9 5 13 ar
10 7 9 ar
11 9 10 ar
12 10 11 ar
13 11 13 ar
14 14 15 ar
15 15 17 ar
16 17 18 ar
17 12 18 ar
18 18 19 ar
19 19 20 ar
20 19 24 ar
21 20 21 ar
22 20 25 ar
23 21 22 ar
24 22 23 ar
25 23 24 ar
26 14 24 ar
27 12 25 ar
28 16 25 2
29 12 26 1
@<TRIPOS>SUBSTRUCTURE
1	RES1	1	GROUP	1 ****	RES
