# created with PyMOL 2.5.2
@<TRIPOS>MOLECULE
BRD4_6JJB_TargetProtein
26 29 1                 
SMALL
USER_CHARGES
@<TRIPOS>ATOM
1	  C1	23.011	35.649	37.062	C.3	1	RES1	0.000	
2	  N1	24.774	32.537	38.614	N.pl3	1	RES1	0.000	
3	  O1	23.991	34.639	36.859	O.3	1	RES1	0.000	
4	  S1	25.683	32.237	37.202	S.O2	1	RES1	0.000	
5	  C2	23.713	33.684	35.864	C.2	1	RES1	0.000	
6	  O2	26.703	33.272	37.063	O.2	1	RES1	0.000	
7	  C3	22.787	33.868	34.827	C.2	1	RES1	0.000	
8	  O3	26.109	30.851	37.209	O.2	1	RES1	0.000	
9	  C4	22.619	32.859	33.871	C.2	1	RES1	0.000	
10	  C5	23.348	31.687	33.915	C.2	1	RES1	0.000	
11	  C6	24.289	31.500	34.913	C.2	1	RES1	0.000	
12	  N6	21.444	28.557	40.728	N.2	1	RES1	0.000	
13	  C7	24.485	32.486	35.881	C.2	1	RES1	0.000	
14	  C8	23.971	31.468	39.175	C.2	1	RES1	0.000	
15	  C9	24.491	30.649	40.213	C.2	1	RES1	0.000	
16	  O9	19.243	28.201	39.972	O.2	1	RES1	0.000	
17	 C10	23.758	29.616	40.786	C.2	1	RES1	0.000	
18	 C11	22.442	29.455	40.352	C.2	1	RES1	0.000	
19	 C12	21.955	30.225	39.346	C.2	1	RES1	0.000	
20	 C13	20.655	29.872	39.069	C.2	1	RES1	0.000	
21	 C14	19.949	30.545	38.070	C.2	1	RES1	0.000	
22	 C15	20.591	31.577	37.393	C.2	1	RES1	0.000	
23	 C36	21.923	31.948	37.696	C.2	1	RES1	0.000	
24	 C37	22.656	31.265	38.719	C.2	1	RES1	0.000	
25	 C38	20.302	28.772	39.953	C.2	1	RES1	0.000	
26	 C39	21.592	27.532	41.749	C.3	1	RES1	0.000	
@<TRIPOS>BOND
1 1 3 1
2 2 14 1
3 3 5 1
4 2 4 1
5 4 6 2
6 4 8 2
7 4 13 1
8 5 7 ar
9 5 13 ar
10 7 9 ar
11 9 10 ar
12 10 11 ar
13 11 13 ar
14 14 15 ar
15 15 17 ar
16 17 18 ar
17 12 18 ar
18 18 19 ar
19 19 20 ar
20 19 24 ar
21 20 21 ar
22 20 25 ar
23 21 22 ar
24 22 23 ar
25 23 24 ar
26 14 24 ar
27 12 25 ar
28 16 25 2
29 12 26 1
@<TRIPOS>SUBSTRUCTURE
1	RES1	1	GROUP	1 ****	RES
