# created with PyMOL 2.5.2
@<TRIPOS>MOLECULE
BRD4_6JJB_TargetProtein
26 29 1                 
SMALL
USER_CHARGES
@<TRIPOS>ATOM
1	  C1	23.007	35.633	37.081	C.3	1	RES1	0.000	
2	  N1	24.780	32.536	38.617	N.pl3	1	RES1	0.000	
3	  O1	24.023	34.637	36.853	O.3	1	RES1	0.000	
4	  S1	25.701	32.228	37.199	S.O2	1	RES1	0.000	
5	  C2	23.741	33.693	35.856	C.2	1	RES1	0.000	
6	  O2	26.046	30.841	37.177	O.2	1	RES1	0.000	
7	  C3	22.788	33.847	34.827	C.2	1	RES1	0.000	
8	  O3	26.712	33.270	37.083	O.2	1	RES1	0.000	
9	  C4	22.603	32.855	33.881	C.2	1	RES1	0.000	
10	  C5	23.347	31.700	33.905	C.2	1	RES1	0.000	
11	  C6	24.298	31.488	34.925	C.2	1	RES1	0.000	
12	  N6	21.458	28.546	40.710	N.2	1	RES1	0.000	
13	  C7	24.499	32.505	35.902	C.2	1	RES1	0.000	
14	  C8	23.966	31.467	39.185	C.2	1	RES1	0.000	
15	  C9	24.489	30.656	40.190	C.2	1	RES1	0.000	
16	  O9	19.240	28.190	39.963	O.2	1	RES1	0.000	
17	 C10	23.754	29.635	40.787	C.2	1	RES1	0.000	
18	 C11	22.431	29.452	40.334	C.2	1	RES1	0.000	
19	 C12	21.948	30.237	39.350	C.2	1	RES1	0.000	
20	 C13	20.647	29.894	39.058	C.2	1	RES1	0.000	
21	 C14	19.939	30.549	38.083	C.2	1	RES1	0.000	
22	 C15	20.589	31.581	37.379	C.2	1	RES1	0.000	
23	 C37	21.923	31.935	37.713	C.2	1	RES1	0.000	
24	 C38	22.628	31.265	38.715	C.2	1	RES1	0.000	
25	 C39	20.314	28.750	39.971	C.2	1	RES1	0.000	
26	 C40	21.611	27.558	41.750	C.3	1	RES1	0.000	
@<TRIPOS>BOND
1 1 3 1
2 2 14 1
3 3 5 1
4 2 4 1
5 4 6 2
6 4 8 2
7 4 13 1
8 5 7 ar
9 5 13 ar
10 7 9 ar
11 9 10 ar
12 10 11 ar
13 11 13 ar
14 14 15 ar
15 15 17 ar
16 17 18 ar
17 12 18 ar
18 18 19 ar
19 19 20 ar
20 19 24 ar
21 20 21 ar
22 20 25 ar
23 21 22 ar
24 22 23 ar
25 23 24 ar
26 14 24 ar
27 12 25 ar
28 16 25 2
29 12 26 1
@<TRIPOS>SUBSTRUCTURE
1	RES1	1	GROUP	1 ****	RES
