# created with PyMOL 2.5.2
@<TRIPOS>MOLECULE
BRD4_6JJB_TargetProtein
26 29 1                 
SMALL
USER_CHARGES
@<TRIPOS>ATOM
1	  C1	22.926	35.677	37.033	C.3	1	RES1	0.000	
2	  N1	24.782	32.521	38.638	N.pl3	1	RES1	0.000	
3	  O1	23.964	34.683	36.845	O.3	1	RES1	0.000	
4	  S1	25.711	32.221	37.220	S.O2	1	RES1	0.000	
5	  C2	23.724	33.722	35.834	C.2	1	RES1	0.000	
6	  O2	26.762	33.194	37.117	O.2	1	RES1	0.000	
7	  C3	22.816	33.889	34.799	C.2	1	RES1	0.000	
8	  O3	25.988	30.787	37.185	O.2	1	RES1	0.000	
9	  C4	22.630	32.882	33.827	C.2	1	RES1	0.000	
10	  C5	23.372	31.713	33.919	C.2	1	RES1	0.000	
11	  C6	24.275	31.515	34.965	C.2	1	RES1	0.000	
12	  N6	21.450	28.544	40.730	N.2	1	RES1	0.000	
13	  C7	24.464	32.496	35.903	C.2	1	RES1	0.000	
14	  C8	23.973	31.459	39.164	C.2	1	RES1	0.000	
15	  C9	24.509	30.652	40.199	C.2	1	RES1	0.000	
16	  O9	19.212	28.211	39.980	O.2	1	RES1	0.000	
17	 C10	23.760	29.619	40.758	C.2	1	RES1	0.000	
18	 C11	22.454	29.434	40.348	C.2	1	RES1	0.000	
19	 C12	21.973	30.225	39.341	C.2	1	RES1	0.000	
20	 C13	20.645	29.866	39.060	C.2	1	RES1	0.000	
21	 C14	19.950	30.550	38.067	C.2	1	RES1	0.000	
22	 C15	20.601	31.601	37.408	C.2	1	RES1	0.000	
23	 C38	21.953	31.922	37.710	C.2	1	RES1	0.000	
24	 C39	22.671	31.244	38.715	C.2	1	RES1	0.000	
25	 C40	20.294	28.770	39.967	C.2	1	RES1	0.000	
26	 C41	21.618	27.546	41.763	C.3	1	RES1	0.000	
@<TRIPOS>BOND
1 1 3 1
2 2 14 1
3 3 5 1
4 2 4 1
5 4 6 2
6 4 8 2
7 4 13 1
8 5 7 ar
9 5 13 ar
10 7 9 ar
11 9 10 ar
12 10 11 ar
13 11 13 ar
14 14 15 ar
15 15 17 ar
16 17 18 ar
17 12 18 ar
18 18 19 ar
19 19 20 ar
20 19 24 ar
21 20 21 ar
22 20 25 ar
23 21 22 ar
24 22 23 ar
25 23 24 ar
26 14 24 ar
27 12 25 ar
28 16 25 2
29 12 26 1
@<TRIPOS>SUBSTRUCTURE
1	RES1	1	GROUP	1 ****	RES
