# created with PyMOL 2.5.2
@<TRIPOS>MOLECULE
CDK6_2EUF_TargetProtein
33 37 1                 
SMALL
USER_CHARGES
@<TRIPOS>ATOM
1	  C1	34.358	27.826	59.482	C.3	1	RES1	0.000	
2	  N1	31.553	22.664	63.427	N.2	1	RES1	0.000	
3	  O1	32.435	28.761	60.533	O.2	1	RES1	0.000	
4	  C2	33.051	27.765	60.186	C.2	1	RES1	0.000	
5	  N2	30.279	20.866	62.748	N.pl3	1	RES1	0.000	
6	  C3	32.490	26.418	60.488	C.2	1	RES1	0.000	
7	  N3	27.653	16.646	60.003	N.pl3	1	RES1	0.000	
8	  C4	32.704	25.823	61.698	C.2	1	RES1	0.000	
9	  N4	26.495	14.466	58.492	N.3	1	RES1	0.000	
10	  C5	33.532	26.444	62.789	C.3	1	RES1	0.000	
11	  C6	32.081	24.527	61.944	C.2	1	RES1	0.000	
12	  C7	32.127	23.856	63.194	C.2	1	RES1	0.000	
13	  C8	30.883	22.101	62.445	C.2	1	RES1	0.000	
14	  C9	29.619	19.877	62.004	C.2	1	RES1	0.000	
15	  N9	29.477	18.671	62.609	N.2	1	RES1	0.000	
16	  O9	31.511	26.311	58.359	O.2	1	RES1	0.000	
17	 C10	29.099	20.063	60.723	C.2	1	RES1	0.000	
18	 N10	30.761	22.632	61.186	N.2	1	RES1	0.000	
19	 C11	28.474	18.990	60.045	C.2	1	RES1	0.000	
20	 N11	31.245	24.432	59.673	N.2	1	RES1	0.000	
21	 C12	28.298	17.768	60.655	C.2	1	RES1	0.000	
22	 C13	28.370	15.373	59.864	C.3	1	RES1	0.000	
23	 C14	27.416	14.210	59.594	C.3	1	RES1	0.000	
24	 C36	25.712	15.665	58.798	C.3	1	RES1	0.000	
25	 C37	26.571	16.901	59.034	C.3	1	RES1	0.000	
26	 C38	28.840	17.681	61.973	C.2	1	RES1	0.000	
27	 C39	31.354	23.833	60.971	C.2	1	RES1	0.000	
28	 C40	30.537	23.655	58.600	C.3	1	RES1	0.000	
29	 C41	31.435	23.081	57.525	C.3	1	RES1	0.000	
30	 C42	30.884	23.621	56.199	C.3	1	RES1	0.000	
31	 C43	29.455	23.929	56.476	C.3	1	RES1	0.000	
32	 C44	29.491	24.491	57.900	C.3	1	RES1	0.000	
33	 C45	31.712	25.716	59.411	C.2	1	RES1	0.000	
@<TRIPOS>BOND
1 1 4 1
2 2 12 ar
3 2 13 ar
4 3 4 2
5 4 6 1
6 5 13 1
7 5 14 1
8 6 8 ar
9 6 33 ar
10 7 25 1
11 8 10 1
12 8 11 ar
13 11 12 ar
14 14 15 ar
15 14 17 ar
16 17 19 ar
17 13 18 ar
18 18 27 ar
19 19 21 ar
20 20 27 ar
21 20 28 1
22 20 33 ar
23 7 21 1
24 21 26 ar
25 7 22 1
26 22 23 1
27 9 23 1
28 9 24 1
29 24 25 1
30 15 26 ar
31 11 27 ar
32 28 29 1
33 28 32 1
34 29 30 1
35 30 31 1
36 31 32 1
37 16 33 2
@<TRIPOS>SUBSTRUCTURE
1	RES1	1	GROUP	1 ****	RES
