# created with PyMOL 2.5.2
@<TRIPOS>MOLECULE
BTK_5P9J_TargetProtein
33 37 1                 
SMALL
USER_CHARGES
@<TRIPOS>ATOM
1	  C1	18.063	5.176	1.620	C.2	1	RES1	0.000	
2	  N1	16.948	4.838	2.422	N.pl3	1	RES1	0.000	
3	  O1	17.449	5.757	8.537	O.3	1	RES1	0.000	
4	  C2	19.035	5.234	-0.487	C.2	1	RES1	0.000	
5	  N2	18.010	4.889	0.310	N.2	1	RES1	0.000	
6	  O2	22.748	9.533	-1.809	O.2	1	RES1	0.000	
7	  C3	20.207	6.098	1.205	C.2	1	RES1	0.000	
8	  N3	20.176	5.861	-0.142	N.2	1	RES1	0.000	
9	  C4	19.243	5.788	2.118	C.2	1	RES1	0.000	
10	  N4	20.952	6.821	3.217	N.2	1	RES1	0.000	
11	  C5	19.743	6.245	3.364	C.2	1	RES1	0.000	
12	  N5	21.215	6.719	1.898	N.2	1	RES1	0.000	
13	  C6	19.171	6.134	4.698	C.2	1	RES1	0.000	
14	  N6	23.586	9.185	0.316	N.pl3	1	RES1	0.000	
15	  C7	18.849	4.883	5.234	C.2	1	RES1	0.000	
16	  C8	18.245	4.776	6.492	C.2	1	RES1	0.000	
17	  C9	18.000	5.932	7.221	C.2	1	RES1	0.000	
18	 C10	16.508	6.700	8.921	C.2	1	RES1	0.000	
19	 C11	15.469	7.163	8.086	C.2	1	RES1	0.000	
20	 C12	14.555	8.088	8.584	C.2	1	RES1	0.000	
21	 C13	14.681	8.550	9.891	C.2	1	RES1	0.000	
22	 C14	15.675	8.099	10.731	C.2	1	RES1	0.000	
23	 C15	16.611	7.157	10.230	C.2	1	RES1	0.000	
24	 C16	18.334	7.190	6.717	C.2	1	RES1	0.000	
25	 C17	18.923	7.285	5.429	C.2	1	RES1	0.000	
26	 C18	22.485	7.230	1.357	C.3	1	RES1	0.000	
27	 C19	23.614	7.111	2.347	C.3	1	RES1	0.000	
28	 C20	24.923	7.699	1.771	C.3	1	RES1	0.000	
29	 C21	24.726	9.127	1.258	C.3	1	RES1	0.000	
30	 C22	23.634	9.722	-0.979	C.2	1	RES1	0.000	
31	 C23	24.859	10.556	-1.331	C.3	1	RES1	0.000	
32	 C24	24.827	11.940	-0.722	C.3	1	RES1	0.000	
33	 C47	22.321	8.670	0.856	C.3	1	RES1	0.000	
@<TRIPOS>BOND
1 1 2 1
2 1 5 ar
3 1 9 ar
4 3 17 1
5 3 18 1
6 4 8 ar
7 4 5 ar
8 6 30 2
9 7 8 ar
10 7 9 ar
11 7 12 ar
12 9 11 ar
13 10 11 ar
14 10 12 ar
15 11 13 1
16 13 15 ar
17 15 16 ar
18 16 17 ar
19 18 19 ar
20 18 23 ar
21 19 20 ar
22 20 21 ar
23 21 22 ar
24 22 23 ar
25 17 24 ar
26 24 25 ar
27 13 25 ar
28 12 26 1
29 26 27 1
30 26 33 1
31 27 28 1
32 28 29 1
33 14 29 1
34 14 30 1
35 30 31 1
36 31 32 1
37 14 33 1
@<TRIPOS>SUBSTRUCTURE
1	RES1	1	GROUP	1 ****	RES
