# created with PyMOL 2.5.2
@<TRIPOS>MOLECULE
BRAF_5CSX_TargetProtein
41 45 1                 
SMALL
USER_CHARGES
@<TRIPOS>ATOM
1	  C1	22.432	-69.369	85.457	C.3	1	RES1	0.000	
2	  N1	20.384	-70.148	90.170	N.pl3	1	RES1	0.000	
3	  O1	21.826	-71.939	89.121	O.2	1	RES1	0.000	
4	  S1	21.862	-70.502	89.407	S.O2	1	RES1	0.000	
5	  C2	22.733	-69.878	86.838	C.3	1	RES1	0.000	
6	  N2	17.566	-74.142	89.579	N.2	1	RES1	0.000	
7	  O2	22.981	-69.908	90.125	O.2	1	RES1	0.000	
8	  C3	21.621	-69.626	87.874	C.3	1	RES1	0.000	
9	  N3	16.213	-79.837	88.271	N.2	1	RES1	0.000	
10	  O3	17.238	-82.615	90.814	O.2	1	RES1	0.000	
11	  C4	19.197	-70.795	89.640	C.2	1	RES1	0.000	
12	  N4	17.281	-78.829	86.369	N.2	1	RES1	0.000	
13	  C5	18.332	-70.059	88.832	C.2	1	RES1	0.000	
14	  N5	16.937	-76.974	91.592	N.2	1	RES1	0.000	
15	  C6	17.183	-70.687	88.278	C.2	1	RES1	0.000	
16	  N6	16.697	-77.433	93.956	N.pl3	1	RES1	0.000	
17	  C7	16.951	-72.033	88.539	C.2	1	RES1	0.000	
18	  N7	15.967	-81.271	92.237	N.pl3	1	RES1	0.000	
19	  C8	17.828	-72.776	89.331	C.2	1	RES1	0.000	
20	  C9	17.458	-75.098	88.600	C.2	1	RES1	0.000	
21	 C10	17.197	-76.334	89.185	C.2	1	RES1	0.000	
22	 C11	17.021	-77.553	88.433	C.2	1	RES1	0.000	
23	 C12	16.387	-78.686	88.964	C.2	1	RES1	0.000	
24	 C13	16.653	-79.864	87.015	C.2	1	RES1	0.000	
25	 C14	17.420	-77.723	87.112	C.2	1	RES1	0.000	
26	 C15	17.160	-76.075	90.600	C.2	1	RES1	0.000	
27	 C16	16.929	-76.511	92.859	C.2	1	RES1	0.000	
28	 C17	16.890	-76.986	95.331	C.3	1	RES1	0.000	
29	 C18	16.286	-78.804	93.704	C.3	1	RES1	0.000	
30	 C19	17.456	-79.776	93.483	C.3	1	RES1	0.000	
31	 C20	16.985	-81.207	93.286	C.3	1	RES1	0.000	
32	 C21	16.138	-82.162	91.153	C.2	1	RES1	0.000	
33	 C22	14.904	-82.564	90.382	C.3	1	RES1	0.000	
34	 C43	14.803	-80.406	92.423	C.3	1	RES1	0.000	
35	 C44	15.199	-78.948	92.604	C.3	1	RES1	0.000	
36	 C45	17.167	-75.145	93.131	C.2	1	RES1	0.000	
37	 C46	17.401	-74.233	92.095	C.2	1	RES1	0.000	
38	 C47	17.388	-74.736	90.803	C.2	1	RES1	0.000	
39	 C48	18.952	-72.136	89.878	C.2	1	RES1	0.000	
40	  F1	15.869	-72.583	87.988	 F	1	RES1	0.000	
41	  F2	19.781	-72.859	90.693	 F	1	RES1	0.000	
@<TRIPOS>BOND
1 1 5 1
2 2 4 1
3 2 11 1
4 3 4 2
5 4 7 2
6 4 8 1
7 5 8 1
8 6 19 1
9 6 20 ar
10 6 38 ar
11 11 13 ar
12 11 39 ar
13 13 15 ar
14 15 17 ar
15 17 19 ar
16 20 21 ar
17 21 22 1
18 21 26 ar
19 22 23 ar
20 22 25 ar
21 9 23 ar
22 9 24 ar
23 12 24 ar
24 12 25 ar
25 14 26 ar
26 26 38 ar
27 14 27 ar
28 16 27 1
29 27 36 ar
30 16 28 1
31 16 29 1
32 29 30 1
33 29 35 1
34 30 31 1
35 18 31 1
36 10 32 2
37 18 32 1
38 32 33 1
39 18 34 1
40 34 35 1
41 36 37 ar
42 37 38 ar
43 19 39 ar
44 17 40 1
45 39 41 1
@<TRIPOS>SUBSTRUCTURE
1	RES1	1	GROUP	1 ****	RES
