# created with PyMOL 2.5.2
@<TRIPOS>MOLECULE
BRD2_4ALH_TargetProtein
35 40 1                 
SMALL
USER_CHARGES
@<TRIPOS>ATOM
1	  C1	-3.265	6.522	25.308	C.3	1	RES1	0.000	
2	  N1	-1.914	8.339	24.300	N.2	1	RES1	0.000	
3	  O1	4.956	6.979	26.668	O.2	1	RES1	0.000	
4	  C2	-2.606	7.837	25.517	C.3	1	RES1	0.000	
5	  N2	-2.633	8.910	23.329	N.2	1	RES1	0.000	
6	  C3	-1.691	9.252	22.421	C.2	1	RES1	0.000	
7	  N3	0.334	7.731	24.941	N.pl3	1	RES1	0.000	
8	  C4	-2.012	9.935	21.103	C.3	1	RES1	0.000	
9	  N4	2.544	6.883	25.339	N.2	1	RES1	0.000	
10	  C5	-3.298	9.623	20.387	C.3	1	RES1	0.000	
11	  C6	-2.021	9.127	19.809	C.3	1	RES1	0.000	
12	  O6	-3.087	5.474	21.014	O.3	1	RES1	0.000	
13	  C7	-0.406	8.882	22.817	C.2	1	RES1	0.000	
14	  O7	-2.477	2.331	17.792	O.2	1	RES1	0.000	
15	  C8	-0.536	8.270	24.057	C.2	1	RES1	0.000	
16	  C9	1.373	6.830	24.668	C.2	1	RES1	0.000	
17	  N9	3.479	4.967	24.191	N.2	1	RES1	0.000	
18	 C10	3.509	5.988	25.085	C.2	1	RES1	0.000	
19	 N10	-3.541	2.032	18.632	N.2	1	RES1	0.000	
20	 C11	4.773	6.111	25.836	C.2	1	RES1	0.000	
21	 N11	1.994	4.012	22.593	N.2	1	RES1	0.000	
22	 C29	2.322	4.946	23.539	C.2	1	RES1	0.000	
23	 C30	1.228	5.791	23.693	C.2	1	RES1	0.000	
24	 C31	0.219	5.337	22.748	C.2	1	RES1	0.000	
25	 C32	-1.070	5.772	22.410	C.2	1	RES1	0.000	
26	 C33	-1.817	5.097	21.438	C.2	1	RES1	0.000	
27	 C34	-3.732	6.503	21.774	C.3	1	RES1	0.000	
28	 C35	-1.240	3.981	20.778	C.2	1	RES1	0.000	
29	 C36	-1.985	3.237	19.756	C.2	1	RES1	0.000	
30	 C37	-1.534	3.080	18.461	C.2	1	RES1	0.000	
31	 C38	-0.358	3.479	17.698	C.3	1	RES1	0.000	
32	 C39	-3.228	2.598	19.793	C.2	1	RES1	0.000	
33	 C40	-4.194	2.433	20.931	C.3	1	RES1	0.000	
34	 C41	0.054	3.547	21.127	C.2	1	RES1	0.000	
35	 C42	0.748	4.256	22.096	C.2	1	RES1	0.000	
@<TRIPOS>BOND
1 1 4 1
2 2 4 1
3 2 5 ar
4 2 15 ar
5 3 20 2
6 5 6 ar
7 6 8 1
8 6 13 ar
9 7 15 1
10 7 16 1
11 8 10 1
12 8 11 1
13 9 16 ar
14 10 11 1
15 13 15 ar
16 9 18 ar
17 17 18 ar
18 18 20 1
19 14 19 ar
20 19 32 ar
21 21 22 ar
22 21 35 ar
23 17 22 ar
24 22 23 ar
25 16 23 ar
26 23 24 ar
27 24 25 ar
28 24 35 ar
29 25 26 ar
30 12 26 1
31 26 28 ar
32 12 27 1
33 28 29 1
34 28 34 ar
35 29 30 ar
36 29 32 ar
37 14 30 ar
38 30 31 1
39 32 33 1
40 34 35 ar
@<TRIPOS>SUBSTRUCTURE
1	RES1	1	GROUP	1 ****	RES
