# created with PyMOL 2.5.2
@<TRIPOS>MOLECULE
BRAF_5CSX_TargetProtein
41 45 1                 
SMALL
USER_CHARGES
@<TRIPOS>ATOM
1	  C1	22.697	-69.205	85.723	C.3	1	RES1	0.000	
2	  N1	20.486	-70.157	90.348	N.pl3	1	RES1	0.000	
3	  O1	22.988	-69.747	90.439	O.2	1	RES1	0.000	
4	  S1	22.014	-70.451	89.618	S.O2	1	RES1	0.000	
5	  C2	22.968	-69.720	87.121	C.3	1	RES1	0.000	
6	  N2	17.587	-73.987	89.369	N.2	1	RES1	0.000	
7	  O2	22.196	-71.851	89.312	O.2	1	RES1	0.000	
8	  C3	21.834	-69.496	88.102	C.3	1	RES1	0.000	
9	  N3	17.317	-78.345	85.710	N.2	1	RES1	0.000	
10	  O3	15.465	-84.164	92.875	O.2	1	RES1	0.000	
11	  C4	19.279	-70.695	89.718	C.2	1	RES1	0.000	
12	  N4	16.204	-79.508	87.489	N.2	1	RES1	0.000	
13	  C5	18.338	-69.864	89.099	C.2	1	RES1	0.000	
14	  N5	16.852	-76.989	91.049	N.2	1	RES1	0.000	
15	  C6	17.177	-70.399	88.534	C.2	1	RES1	0.000	
16	  N6	16.537	-77.700	93.308	N.pl3	1	RES1	0.000	
17	  C7	16.951	-71.744	88.633	C.2	1	RES1	0.000	
18	  N7	15.642	-81.848	92.911	N.pl3	1	RES1	0.000	
19	  C8	17.849	-72.606	89.273	C.2	1	RES1	0.000	
20	  C9	17.476	-74.835	88.295	C.2	1	RES1	0.000	
21	 C10	17.202	-76.090	88.743	C.2	1	RES1	0.000	
22	 C11	17.023	-77.263	87.864	C.2	1	RES1	0.000	
23	 C12	17.472	-77.297	86.534	C.2	1	RES1	0.000	
24	 C13	16.682	-79.416	86.238	C.2	1	RES1	0.000	
25	 C14	16.395	-78.440	88.263	C.2	1	RES1	0.000	
26	 C15	17.109	-76.002	90.149	C.2	1	RES1	0.000	
27	 C16	16.834	-76.668	92.361	C.2	1	RES1	0.000	
28	 C17	16.629	-77.455	94.760	C.3	1	RES1	0.000	
29	 C18	15.992	-78.988	92.817	C.3	1	RES1	0.000	
30	 C19	15.084	-79.640	93.870	C.3	1	RES1	0.000	
31	 C20	14.553	-80.976	93.371	C.3	1	RES1	0.000	
32	 C21	15.732	-83.132	93.460	C.2	1	RES1	0.000	
33	 C22	16.206	-83.212	94.909	C.3	1	RES1	0.000	
34	 C38	16.510	-81.297	91.898	C.3	1	RES1	0.000	
35	 C39	17.114	-79.969	92.371	C.3	1	RES1	0.000	
36	 C40	17.073	-75.363	92.815	C.2	1	RES1	0.000	
37	 C41	17.354	-74.352	91.876	C.2	1	RES1	0.000	
38	 C42	17.351	-74.705	90.540	C.2	1	RES1	0.000	
39	 C43	19.020	-72.060	89.846	C.2	1	RES1	0.000	
40	  F1	15.829	-72.265	88.090	 F	1	RES1	0.000	
41	  F2	19.878	-72.862	90.512	 F	1	RES1	0.000	
@<TRIPOS>BOND
1 1 5 1
2 2 4 1
3 2 11 1
4 3 4 2
5 4 7 2
6 4 8 1
7 5 8 1
8 6 19 1
9 6 20 ar
10 6 38 ar
11 11 13 ar
12 11 39 ar
13 13 15 ar
14 15 17 ar
15 17 19 ar
16 20 21 ar
17 21 22 1
18 21 26 ar
19 22 23 ar
20 22 25 ar
21 9 23 ar
22 9 24 ar
23 12 24 ar
24 12 25 ar
25 14 26 ar
26 26 38 ar
27 14 27 ar
28 16 27 1
29 27 36 ar
30 16 28 1
31 16 29 1
32 29 30 1
33 29 35 1
34 30 31 1
35 18 31 1
36 10 32 2
37 18 32 1
38 32 33 1
39 18 34 1
40 34 35 1
41 36 37 ar
42 37 38 ar
43 19 39 ar
44 17 40 1
45 39 41 1
@<TRIPOS>SUBSTRUCTURE
1	RES1	1	GROUP	1 ****	RES
