# created with PyMOL 2.5.2
@<TRIPOS>MOLECULE
BRAF_5CSX_TargetProtein
41 45 1                 
SMALL
USER_CHARGES
@<TRIPOS>ATOM
1	  C1	22.651	-69.363	85.555	C.3	1	RES1	0.000	
2	  N1	20.273	-70.127	90.126	N.pl3	1	RES1	0.000	
3	  O1	21.970	-71.864	89.241	O.2	1	RES1	0.000	
4	  S1	21.830	-70.430	89.478	S.O2	1	RES1	0.000	
5	  C2	22.874	-69.832	86.980	C.3	1	RES1	0.000	
6	  N2	17.557	-74.171	89.550	N.2	1	RES1	0.000	
7	  O2	22.786	-69.715	90.294	O.2	1	RES1	0.000	
8	  C3	21.681	-69.593	87.907	C.3	1	RES1	0.000	
9	  N3	17.146	-78.872	86.379	N.2	1	RES1	0.000	
10	  O3	17.090	-82.475	90.565	O.2	1	RES1	0.000	
11	  C4	19.150	-70.805	89.544	C.2	1	RES1	0.000	
12	  N4	16.163	-79.861	88.303	N.2	1	RES1	0.000	
13	  C5	18.256	-70.086	88.767	C.2	1	RES1	0.000	
14	  N5	17.008	-76.998	91.585	N.2	1	RES1	0.000	
15	  C6	17.137	-70.723	88.227	C.2	1	RES1	0.000	
16	  N6	16.768	-77.449	93.958	N.pl3	1	RES1	0.000	
17	  C7	16.938	-72.072	88.494	C.2	1	RES1	0.000	
18	  N7	16.018	-81.274	92.217	N.pl3	1	RES1	0.000	
19	  C8	17.770	-72.802	89.289	C.2	1	RES1	0.000	
20	  C9	17.392	-75.129	88.582	C.2	1	RES1	0.000	
21	 C10	17.179	-76.369	89.201	C.2	1	RES1	0.000	
22	 C11	16.995	-77.589	88.436	C.2	1	RES1	0.000	
23	 C12	17.368	-77.737	87.093	C.2	1	RES1	0.000	
24	 C13	16.523	-79.864	87.025	C.2	1	RES1	0.000	
25	 C14	16.367	-78.706	88.994	C.2	1	RES1	0.000	
26	 C15	17.186	-76.102	90.586	C.2	1	RES1	0.000	
27	 C16	17.016	-76.516	92.869	C.2	1	RES1	0.000	
28	 C17	17.021	-77.014	95.354	C.3	1	RES1	0.000	
29	 C18	16.337	-78.844	93.710	C.3	1	RES1	0.000	
30	 C19	17.508	-79.817	93.495	C.3	1	RES1	0.000	
31	 C20	17.032	-81.214	93.286	C.3	1	RES1	0.000	
32	 C21	16.071	-82.065	91.076	C.2	1	RES1	0.000	
33	 C22	14.736	-82.355	90.375	C.3	1	RES1	0.000	
34	 C39	14.853	-80.414	92.429	C.3	1	RES1	0.000	
35	 C40	15.275	-78.933	92.621	C.3	1	RES1	0.000	
36	 C41	17.230	-75.158	93.120	C.2	1	RES1	0.000	
37	 C42	17.424	-74.260	92.073	C.2	1	RES1	0.000	
38	 C43	17.422	-74.754	90.778	C.2	1	RES1	0.000	
39	 C44	18.919	-72.186	89.824	C.2	1	RES1	0.000	
40	  F1	15.798	-72.651	87.986	 F	1	RES1	0.000	
41	  F2	19.810	-72.887	90.545	 F	1	RES1	0.000	
@<TRIPOS>BOND
1 1 5 1
2 2 4 1
3 2 11 1
4 3 4 2
5 4 7 2
6 4 8 1
7 5 8 1
8 6 19 1
9 6 20 ar
10 6 38 ar
11 11 13 ar
12 11 39 ar
13 13 15 ar
14 15 17 ar
15 17 19 ar
16 20 21 ar
17 21 22 1
18 21 26 ar
19 22 23 ar
20 22 25 ar
21 9 23 ar
22 9 24 ar
23 12 24 ar
24 12 25 ar
25 14 26 ar
26 26 38 ar
27 14 27 ar
28 16 27 1
29 27 36 ar
30 16 28 1
31 16 29 1
32 29 30 1
33 29 35 1
34 30 31 1
35 18 31 1
36 10 32 2
37 18 32 1
38 32 33 1
39 18 34 1
40 34 35 1
41 36 37 ar
42 37 38 ar
43 19 39 ar
44 17 40 1
45 39 41 1
@<TRIPOS>SUBSTRUCTURE
1	RES1	1	GROUP	1 ****	RES
