# created with PyMOL 2.5.2
@<TRIPOS>MOLECULE
BRAF_5CSX_TargetProtein
41 45 1                 
SMALL
USER_CHARGES
@<TRIPOS>ATOM
1	  C1	22.496	-69.177	85.719	C.3	1	RES1	0.000	
2	  N1	20.562	-70.234	90.401	N.pl3	1	RES1	0.000	
3	  O1	21.944	-71.950	89.142	O.2	1	RES1	0.000	
4	  S1	22.007	-70.583	89.558	S.O2	1	RES1	0.000	
5	  C2	22.849	-69.811	87.057	C.3	1	RES1	0.000	
6	  N2	17.518	-73.939	89.387	N.2	1	RES1	0.000	
7	  O2	23.183	-70.071	90.298	O.2	1	RES1	0.000	
8	  C3	21.762	-69.554	88.110	C.3	1	RES1	0.000	
9	  N3	17.387	-78.319	85.730	N.2	1	RES1	0.000	
10	  O3	15.707	-84.115	92.630	O.2	1	RES1	0.000	
11	  C4	19.338	-70.759	89.832	C.2	1	RES1	0.000	
12	  N4	16.303	-79.518	87.524	N.2	1	RES1	0.000	
13	  C5	18.522	-69.849	89.115	C.2	1	RES1	0.000	
14	  N5	16.770	-76.945	91.083	N.2	1	RES1	0.000	
15	  C6	17.350	-70.327	88.522	C.2	1	RES1	0.000	
16	  N6	16.442	-77.666	93.321	N.pl3	1	RES1	0.000	
17	  C7	17.014	-71.675	88.600	C.2	1	RES1	0.000	
18	  N7	15.693	-81.833	92.890	N.pl3	1	RES1	0.000	
19	  C8	17.836	-72.570	89.299	C.2	1	RES1	0.000	
20	  C9	17.453	-74.791	88.293	C.2	1	RES1	0.000	
21	 C10	17.176	-76.065	88.755	C.2	1	RES1	0.000	
22	 C11	17.036	-77.254	87.890	C.2	1	RES1	0.000	
23	 C12	17.515	-77.252	86.553	C.2	1	RES1	0.000	
24	 C13	16.792	-79.399	86.280	C.2	1	RES1	0.000	
25	 C14	16.458	-78.436	88.317	C.2	1	RES1	0.000	
26	 C15	17.075	-75.973	90.179	C.2	1	RES1	0.000	
27	 C16	16.708	-76.620	92.386	C.2	1	RES1	0.000	
28	 C17	16.807	-77.455	94.759	C.3	1	RES1	0.000	
29	 C18	15.949	-78.951	92.833	C.3	1	RES1	0.000	
30	 C19	15.000	-79.625	93.831	C.3	1	RES1	0.000	
31	 C20	14.529	-80.985	93.280	C.3	1	RES1	0.000	
32	 C21	15.869	-83.141	93.347	C.2	1	RES1	0.000	
33	 C22	16.257	-83.367	94.789	C.3	1	RES1	0.000	
34	 C40	16.638	-81.227	91.985	C.3	1	RES1	0.000	
35	 C41	17.127	-79.895	92.494	C.3	1	RES1	0.000	
36	 C42	16.928	-75.284	92.784	C.2	1	RES1	0.000	
37	 C43	17.213	-74.290	91.887	C.2	1	RES1	0.000	
38	 C44	17.291	-74.642	90.546	C.2	1	RES1	0.000	
39	 C45	18.991	-72.099	89.923	C.2	1	RES1	0.000	
40	  F1	15.866	-72.095	88.041	 F	1	RES1	0.000	
41	  F2	19.782	-72.968	90.598	 F	1	RES1	0.000	
@<TRIPOS>BOND
1 1 5 1
2 2 4 1
3 2 11 1
4 3 4 2
5 4 7 2
6 4 8 1
7 5 8 1
8 6 19 1
9 6 20 ar
10 6 38 ar
11 11 13 ar
12 11 39 ar
13 13 15 ar
14 15 17 ar
15 17 19 ar
16 20 21 ar
17 21 22 1
18 21 26 ar
19 22 23 ar
20 22 25 ar
21 9 23 ar
22 9 24 ar
23 12 24 ar
24 12 25 ar
25 14 26 ar
26 26 38 ar
27 14 27 ar
28 16 27 1
29 27 36 ar
30 16 28 1
31 16 29 1
32 29 30 1
33 29 35 1
34 30 31 1
35 18 31 1
36 10 32 2
37 18 32 1
38 32 33 1
39 18 34 1
40 34 35 1
41 36 37 ar
42 37 38 ar
43 19 39 ar
44 17 40 1
45 39 41 1
@<TRIPOS>SUBSTRUCTURE
1	RES1	1	GROUP	1 ****	RES
