# created with PyMOL 2.5.2
@<TRIPOS>MOLECULE
BRAF_5CSX_TargetProtein
41 45 1                 
SMALL
USER_CHARGES
@<TRIPOS>ATOM
1	  C1	22.707	-69.196	85.704	C.3	1	RES1	0.000	
2	  N1	20.465	-70.126	90.335	N.pl3	1	RES1	0.000	
3	  O1	22.987	-69.740	90.417	O.2	1	RES1	0.000	
4	  S1	22.007	-70.405	89.593	S.O2	1	RES1	0.000	
5	  C2	23.038	-69.747	87.089	C.3	1	RES1	0.000	
6	  N2	17.583	-73.990	89.406	N.2	1	RES1	0.000	
7	  O2	22.153	-71.786	89.269	O.2	1	RES1	0.000	
8	  C3	21.856	-69.486	88.052	C.3	1	RES1	0.000	
9	  N3	17.319	-78.340	85.729	N.2	1	RES1	0.000	
10	  O3	15.519	-84.146	92.695	O.2	1	RES1	0.000	
11	  C4	19.278	-70.686	89.732	C.2	1	RES1	0.000	
12	  N4	16.196	-79.516	87.540	N.2	1	RES1	0.000	
13	  C5	18.377	-69.863	89.020	C.2	1	RES1	0.000	
14	  N5	16.794	-76.982	91.074	N.2	1	RES1	0.000	
15	  C6	17.217	-70.424	88.454	C.2	1	RES1	0.000	
16	  N6	16.490	-77.692	93.354	N.pl3	1	RES1	0.000	
17	  C7	16.954	-71.773	88.584	C.2	1	RES1	0.000	
18	  N7	15.677	-81.853	92.879	N.pl3	1	RES1	0.000	
19	  C8	17.853	-72.598	89.292	C.2	1	RES1	0.000	
20	  C9	17.496	-74.818	88.338	C.2	1	RES1	0.000	
21	 C10	17.171	-76.129	88.781	C.2	1	RES1	0.000	
22	 C11	17.019	-77.275	87.910	C.2	1	RES1	0.000	
23	 C12	17.466	-77.278	86.579	C.2	1	RES1	0.000	
24	 C13	16.680	-79.416	86.256	C.2	1	RES1	0.000	
25	 C14	16.366	-78.440	88.293	C.2	1	RES1	0.000	
26	 C15	17.082	-75.992	90.190	C.2	1	RES1	0.000	
27	 C16	16.780	-76.647	92.407	C.2	1	RES1	0.000	
28	 C17	16.859	-77.509	94.768	C.3	1	RES1	0.000	
29	 C18	15.978	-78.985	92.827	C.3	1	RES1	0.000	
30	 C19	15.044	-79.677	93.834	C.3	1	RES1	0.000	
31	 C20	14.545	-80.988	93.281	C.3	1	RES1	0.000	
32	 C21	15.738	-83.188	93.356	C.2	1	RES1	0.000	
33	 C22	16.078	-83.352	94.811	C.3	1	RES1	0.000	
34	 C39	16.615	-81.226	91.933	C.3	1	RES1	0.000	
35	 C40	17.145	-79.917	92.449	C.3	1	RES1	0.000	
36	 C41	17.021	-75.328	92.827	C.2	1	RES1	0.000	
37	 C42	17.322	-74.342	91.911	C.2	1	RES1	0.000	
38	 C43	17.334	-74.693	90.563	C.2	1	RES1	0.000	
39	 C44	19.011	-72.057	89.867	C.2	1	RES1	0.000	
40	  F1	15.842	-72.270	88.034	 F	1	RES1	0.000	
41	  F2	19.880	-72.817	90.545	 F	1	RES1	0.000	
@<TRIPOS>BOND
1 1 5 1
2 2 4 1
3 2 11 1
4 3 4 2
5 4 7 2
6 4 8 1
7 5 8 1
8 6 19 1
9 6 20 ar
10 6 38 ar
11 11 13 ar
12 11 39 ar
13 13 15 ar
14 15 17 ar
15 17 19 ar
16 20 21 ar
17 21 22 1
18 21 26 ar
19 22 23 ar
20 22 25 ar
21 9 23 ar
22 9 24 ar
23 12 24 ar
24 12 25 ar
25 14 26 ar
26 26 38 ar
27 14 27 ar
28 16 27 1
29 27 36 ar
30 16 28 1
31 16 29 1
32 29 30 1
33 29 35 1
34 30 31 1
35 18 31 1
36 10 32 2
37 18 32 1
38 32 33 1
39 18 34 1
40 34 35 1
41 36 37 ar
42 37 38 ar
43 19 39 ar
44 17 40 1
45 39 41 1
@<TRIPOS>SUBSTRUCTURE
1	RES1	1	GROUP	1 ****	RES
