# created with PyMOL 2.5.2
@<TRIPOS>MOLECULE
BRAF_5CSX_TargetProtein
41 45 1                 
SMALL
USER_CHARGES
@<TRIPOS>ATOM
1	  C1	22.697	-69.211	85.767	C.3	1	RES1	0.000	
2	  N1	20.486	-70.172	90.345	N.pl3	1	RES1	0.000	
3	  O1	22.112	-71.858	89.263	O.2	1	RES1	0.000	
4	  S1	22.001	-70.444	89.616	S.O2	1	RES1	0.000	
5	  C2	22.986	-69.744	87.164	C.3	1	RES1	0.000	
6	  N2	17.559	-73.970	89.354	N.2	1	RES1	0.000	
7	  O2	23.004	-69.814	90.431	O.2	1	RES1	0.000	
8	  C3	21.836	-69.495	88.100	C.3	1	RES1	0.000	
9	  N3	16.187	-79.530	87.524	N.2	1	RES1	0.000	
10	  O3	15.490	-84.157	92.695	O.2	1	RES1	0.000	
11	  C4	19.295	-70.708	89.723	C.2	1	RES1	0.000	
12	  N4	17.335	-78.379	85.732	N.2	1	RES1	0.000	
13	  C5	18.383	-69.853	89.093	C.2	1	RES1	0.000	
14	  N5	16.867	-76.993	91.054	N.2	1	RES1	0.000	
15	  C6	17.213	-70.363	88.530	C.2	1	RES1	0.000	
16	  N6	16.565	-77.694	93.346	N.pl3	1	RES1	0.000	
17	  C7	16.953	-71.732	88.622	C.2	1	RES1	0.000	
18	  N7	15.662	-81.857	92.903	N.pl3	1	RES1	0.000	
19	  C8	17.856	-72.598	89.283	C.2	1	RES1	0.000	
20	  C9	17.433	-74.814	88.296	C.2	1	RES1	0.000	
21	 C10	17.186	-76.089	88.730	C.2	1	RES1	0.000	
22	 C11	17.001	-77.280	87.868	C.2	1	RES1	0.000	
23	 C12	16.373	-78.439	88.277	C.2	1	RES1	0.000	
24	 C13	16.704	-79.428	86.273	C.2	1	RES1	0.000	
25	 C14	17.472	-77.301	86.555	C.2	1	RES1	0.000	
26	 C15	17.107	-76.023	90.176	C.2	1	RES1	0.000	
27	 C16	16.846	-76.659	92.378	C.2	1	RES1	0.000	
28	 C17	16.633	-77.389	94.798	C.3	1	RES1	0.000	
29	 C18	16.023	-78.979	92.826	C.3	1	RES1	0.000	
30	 C19	15.082	-79.622	93.866	C.3	1	RES1	0.000	
31	 C20	14.569	-80.976	93.356	C.3	1	RES1	0.000	
32	 C21	15.733	-83.157	93.395	C.2	1	RES1	0.000	
33	 C22	16.150	-83.335	94.806	C.3	1	RES1	0.000	
34	 C41	16.574	-81.255	91.932	C.3	1	RES1	0.000	
35	 C42	17.157	-79.935	92.422	C.3	1	RES1	0.000	
36	 C43	17.035	-75.338	92.793	C.2	1	RES1	0.000	
37	 C44	17.288	-74.320	91.878	C.2	1	RES1	0.000	
38	 C45	17.354	-74.665	90.536	C.2	1	RES1	0.000	
39	 C46	19.015	-72.071	89.826	C.2	1	RES1	0.000	
40	  F1	15.804	-72.207	88.102	 F	1	RES1	0.000	
41	  F2	19.899	-72.901	90.409	 F	1	RES1	0.000	
@<TRIPOS>BOND
1 1 5 1
2 2 4 1
3 2 11 1
4 3 4 2
5 4 7 2
6 4 8 1
7 5 8 1
8 6 19 1
9 6 20 ar
10 6 38 ar
11 11 13 ar
12 11 39 ar
13 13 15 ar
14 15 17 ar
15 17 19 ar
16 20 21 ar
17 21 22 1
18 21 26 ar
19 22 23 ar
20 22 25 ar
21 9 23 ar
22 9 24 ar
23 12 24 ar
24 12 25 ar
25 14 26 ar
26 26 38 ar
27 14 27 ar
28 16 27 1
29 27 36 ar
30 16 28 1
31 16 29 1
32 29 30 1
33 29 35 1
34 30 31 1
35 18 31 1
36 10 32 2
37 18 32 1
38 32 33 1
39 18 34 1
40 34 35 1
41 36 37 ar
42 37 38 ar
43 19 39 ar
44 17 40 1
45 39 41 1
@<TRIPOS>SUBSTRUCTURE
1	RES1	1	GROUP	1 ****	RES
