# created with PyMOL 2.5.2
@<TRIPOS>MOLECULE
BRAF_5CSX_TargetProtein
41 45 1                 
SMALL
USER_CHARGES
@<TRIPOS>ATOM
1	  C1	22.627	-69.109	85.745	C.3	1	RES1	0.000	
2	  N1	20.501	-70.272	90.407	N.pl3	1	RES1	0.000	
3	  O1	22.026	-71.910	89.170	O.2	1	RES1	0.000	
4	  S1	22.030	-70.537	89.622	S.O2	1	RES1	0.000	
5	  C2	22.923	-69.696	87.143	C.3	1	RES1	0.000	
6	  N2	17.528	-73.975	89.349	N.2	1	RES1	0.000	
7	  O2	23.105	-69.984	90.455	O.2	1	RES1	0.000	
8	  C3	21.819	-69.513	88.151	C.3	1	RES1	0.000	
9	  N3	17.372	-78.346	85.723	N.2	1	RES1	0.000	
10	  O3	15.573	-84.124	92.734	O.2	1	RES1	0.000	
11	  C4	19.275	-70.733	89.816	C.2	1	RES1	0.000	
12	  N4	16.243	-79.531	87.503	N.2	1	RES1	0.000	
13	  C5	18.402	-69.855	89.090	C.2	1	RES1	0.000	
14	  N5	16.809	-76.969	91.067	N.2	1	RES1	0.000	
15	  C6	17.272	-70.373	88.470	C.2	1	RES1	0.000	
16	  N6	16.494	-77.669	93.340	N.pl3	1	RES1	0.000	
17	  C7	16.980	-71.706	88.581	C.2	1	RES1	0.000	
18	  N7	15.715	-81.830	92.929	N.pl3	1	RES1	0.000	
19	  C8	17.822	-72.596	89.255	C.2	1	RES1	0.000	
20	  C9	17.432	-74.805	88.288	C.2	1	RES1	0.000	
21	 C10	17.166	-76.084	88.728	C.2	1	RES1	0.000	
22	 C11	17.032	-77.267	87.869	C.2	1	RES1	0.000	
23	 C12	17.471	-77.287	86.533	C.2	1	RES1	0.000	
24	 C13	16.736	-79.424	86.237	C.2	1	RES1	0.000	
25	 C14	16.403	-78.456	88.284	C.2	1	RES1	0.000	
26	 C15	17.075	-75.979	90.194	C.2	1	RES1	0.000	
27	 C16	16.764	-76.627	92.363	C.2	1	RES1	0.000	
28	 C17	16.892	-77.480	94.740	C.3	1	RES1	0.000	
29	 C18	15.991	-78.964	92.843	C.3	1	RES1	0.000	
30	 C19	15.075	-79.640	93.841	C.3	1	RES1	0.000	
31	 C20	14.567	-80.964	93.315	C.3	1	RES1	0.000	
32	 C21	15.791	-83.127	93.416	C.2	1	RES1	0.000	
33	 C22	16.127	-83.311	94.875	C.3	1	RES1	0.000	
34	 C42	16.633	-81.224	91.980	C.3	1	RES1	0.000	
35	 C43	17.149	-79.898	92.464	C.3	1	RES1	0.000	
36	 C44	16.986	-75.299	92.787	C.2	1	RES1	0.000	
37	 C45	17.240	-74.300	91.840	C.2	1	RES1	0.000	
38	 C46	17.287	-74.679	90.526	C.2	1	RES1	0.000	
39	 C47	18.999	-72.067	89.868	C.2	1	RES1	0.000	
40	  F1	15.849	-72.164	88.008	 F	1	RES1	0.000	
41	  F2	19.819	-72.925	90.501	 F	1	RES1	0.000	
@<TRIPOS>BOND
1 1 5 1
2 2 4 1
3 2 11 1
4 3 4 2
5 4 7 2
6 4 8 1
7 5 8 1
8 6 19 1
9 6 20 ar
10 6 38 ar
11 11 13 ar
12 11 39 ar
13 13 15 ar
14 15 17 ar
15 17 19 ar
16 20 21 ar
17 21 22 1
18 21 26 ar
19 22 23 ar
20 22 25 ar
21 9 23 ar
22 9 24 ar
23 12 24 ar
24 12 25 ar
25 14 26 ar
26 26 38 ar
27 14 27 ar
28 16 27 1
29 27 36 ar
30 16 28 1
31 16 29 1
32 29 30 1
33 29 35 1
34 30 31 1
35 18 31 1
36 10 32 2
37 18 32 1
38 32 33 1
39 18 34 1
40 34 35 1
41 36 37 ar
42 37 38 ar
43 19 39 ar
44 17 40 1
45 39 41 1
@<TRIPOS>SUBSTRUCTURE
1	RES1	1	GROUP	1 ****	RES
