# created with PyMOL 2.5.2
@<TRIPOS>MOLECULE
BRAF_5CSX_TargetProtein
41 45 1                 
SMALL
USER_CHARGES
@<TRIPOS>ATOM
1	  C1	22.701	-69.298	85.539	C.3	1	RES1	0.000	
2	  N1	20.292	-70.160	90.082	N.pl3	1	RES1	0.000	
3	  O1	22.774	-69.696	90.283	O.2	1	RES1	0.000	
4	  S1	21.849	-70.442	89.448	S.O2	1	RES1	0.000	
5	  C2	22.934	-69.802	86.966	C.3	1	RES1	0.000	
6	  N2	17.517	-74.165	89.570	N.2	1	RES1	0.000	
7	  O2	22.042	-71.841	89.231	O.2	1	RES1	0.000	
8	  C3	21.737	-69.585	87.886	C.3	1	RES1	0.000	
9	  N3	17.199	-78.868	86.362	N.2	1	RES1	0.000	
10	  O3	16.907	-82.600	90.595	O.2	1	RES1	0.000	
11	  C4	19.115	-70.810	89.508	C.2	1	RES1	0.000	
12	  N4	16.279	-79.899	88.354	N.2	1	RES1	0.000	
13	  C5	18.174	-70.071	88.770	C.2	1	RES1	0.000	
14	  N5	16.954	-76.988	91.582	N.2	1	RES1	0.000	
15	  C6	17.037	-70.695	88.279	C.2	1	RES1	0.000	
16	  N6	16.875	-77.482	93.951	N.pl3	1	RES1	0.000	
17	  C7	16.806	-72.064	88.540	C.2	1	RES1	0.000	
18	  N7	15.916	-81.286	92.210	N.pl3	1	RES1	0.000	
19	  C8	17.753	-72.761	89.288	C.2	1	RES1	0.000	
20	  C9	17.411	-75.121	88.572	C.2	1	RES1	0.000	
21	 C10	17.153	-76.333	89.170	C.2	1	RES1	0.000	
22	 C11	17.006	-77.585	88.428	C.2	1	RES1	0.000	
23	 C12	17.374	-77.729	87.085	C.2	1	RES1	0.000	
24	 C13	16.660	-79.916	87.035	C.2	1	RES1	0.000	
25	 C14	16.450	-78.737	88.998	C.2	1	RES1	0.000	
26	 C15	17.160	-76.106	90.590	C.2	1	RES1	0.000	
27	 C16	17.060	-76.545	92.848	C.2	1	RES1	0.000	
28	 C17	17.123	-77.030	95.329	C.3	1	RES1	0.000	
29	 C18	16.410	-78.860	93.723	C.3	1	RES1	0.000	
30	 C19	17.532	-79.867	93.423	C.3	1	RES1	0.000	
31	 C20	16.983	-81.265	93.231	C.3	1	RES1	0.000	
32	 C21	15.893	-82.097	91.103	C.2	1	RES1	0.000	
33	 C22	14.582	-82.361	90.441	C.3	1	RES1	0.000	
34	 C41	14.805	-80.360	92.467	C.3	1	RES1	0.000	
35	 C42	15.295	-78.931	92.644	C.3	1	RES1	0.000	
36	 C43	17.329	-75.187	93.130	C.2	1	RES1	0.000	
37	 C44	17.455	-74.248	92.107	C.2	1	RES1	0.000	
38	 C45	17.394	-74.769	90.790	C.2	1	RES1	0.000	
39	 C46	18.890	-72.144	89.776	C.2	1	RES1	0.000	
40	  F1	15.743	-72.652	88.033	 F	1	RES1	0.000	
41	  F2	19.772	-72.833	90.555	 F	1	RES1	0.000	
@<TRIPOS>BOND
1 1 5 1
2 2 4 1
3 2 11 1
4 3 4 2
5 4 7 2
6 4 8 1
7 5 8 1
8 6 19 1
9 6 20 ar
10 6 38 ar
11 11 13 ar
12 11 39 ar
13 13 15 ar
14 15 17 ar
15 17 19 ar
16 20 21 ar
17 21 22 1
18 21 26 ar
19 22 23 ar
20 22 25 ar
21 9 23 ar
22 9 24 ar
23 12 24 ar
24 12 25 ar
25 14 26 ar
26 26 38 ar
27 14 27 ar
28 16 27 1
29 27 36 ar
30 16 28 1
31 16 29 1
32 29 30 1
33 29 35 1
34 30 31 1
35 18 31 1
36 10 32 2
37 18 32 1
38 32 33 1
39 18 34 1
40 34 35 1
41 36 37 ar
42 37 38 ar
43 19 39 ar
44 17 40 1
45 39 41 1
@<TRIPOS>SUBSTRUCTURE
1	RES1	1	GROUP	1 ****	RES
