# created with PyMOL 2.5.2
@<TRIPOS>MOLECULE
BRAF_5CSX_TargetProtein
41 45 1                 
SMALL
USER_CHARGES
@<TRIPOS>ATOM
1	  C1	22.699	-69.224	85.774	C.3	1	RES1	0.000	
2	  N1	20.487	-70.191	90.356	N.pl3	1	RES1	0.000	
3	  O1	23.115	-70.093	90.387	O.2	1	RES1	0.000	
4	  S1	21.984	-70.544	89.575	S.O2	1	RES1	0.000	
5	  C2	23.003	-69.840	87.127	C.3	1	RES1	0.000	
6	  N2	17.528	-73.936	89.391	N.2	1	RES1	0.000	
7	  O2	21.911	-71.956	89.178	O.2	1	RES1	0.000	
8	  C3	21.859	-69.554	88.121	C.3	1	RES1	0.000	
9	  N3	17.317	-78.330	85.752	N.2	1	RES1	0.000	
10	  O3	15.603	-84.075	92.517	O.2	1	RES1	0.000	
11	  C4	19.256	-70.669	89.780	C.2	1	RES1	0.000	
12	  N4	16.267	-79.539	87.573	N.2	1	RES1	0.000	
13	  C5	18.370	-69.855	89.036	C.2	1	RES1	0.000	
14	  N5	16.863	-76.954	91.094	N.2	1	RES1	0.000	
15	  C6	17.237	-70.388	88.465	C.2	1	RES1	0.000	
16	  N6	16.584	-77.688	93.347	N.pl3	1	RES1	0.000	
17	  C7	16.934	-71.710	88.607	C.2	1	RES1	0.000	
18	  N7	15.658	-81.797	92.885	N.pl3	1	RES1	0.000	
19	  C8	17.798	-72.557	89.272	C.2	1	RES1	0.000	
20	  C9	17.455	-74.803	88.325	C.2	1	RES1	0.000	
21	 C10	17.173	-76.089	88.778	C.2	1	RES1	0.000	
22	 C11	16.999	-77.233	87.885	C.2	1	RES1	0.000	
23	 C12	17.447	-77.265	86.580	C.2	1	RES1	0.000	
24	 C13	16.738	-79.423	86.304	C.2	1	RES1	0.000	
25	 C14	16.423	-78.432	88.348	C.2	1	RES1	0.000	
26	 C15	17.090	-75.976	90.179	C.2	1	RES1	0.000	
27	 C16	16.851	-76.646	92.416	C.2	1	RES1	0.000	
28	 C17	16.593	-77.386	94.813	C.3	1	RES1	0.000	
29	 C18	16.042	-78.960	92.862	C.3	1	RES1	0.000	
30	 C19	15.120	-79.594	93.855	C.3	1	RES1	0.000	
31	 C20	14.558	-80.909	93.322	C.3	1	RES1	0.000	
32	 C21	15.809	-83.140	93.257	C.2	1	RES1	0.000	
33	 C22	16.226	-83.412	94.680	C.3	1	RES1	0.000	
34	 C45	16.586	-81.228	91.896	C.3	1	RES1	0.000	
35	 C46	17.172	-79.916	92.415	C.3	1	RES1	0.000	
36	 C47	17.062	-75.308	92.823	C.2	1	RES1	0.000	
37	 C48	17.329	-74.297	91.902	C.2	1	RES1	0.000	
38	 C49	17.316	-74.674	90.537	C.2	1	RES1	0.000	
39	 C50	18.969	-72.019	89.868	C.2	1	RES1	0.000	
40	  F1	15.807	-72.214	88.009	 F	1	RES1	0.000	
41	  F2	19.796	-72.832	90.544	 F	1	RES1	0.000	
@<TRIPOS>BOND
1 1 5 1
2 2 4 1
3 2 11 1
4 3 4 2
5 4 7 2
6 4 8 1
7 5 8 1
8 6 19 1
9 6 20 ar
10 6 38 ar
11 11 13 ar
12 11 39 ar
13 13 15 ar
14 15 17 ar
15 17 19 ar
16 20 21 ar
17 21 22 1
18 21 26 ar
19 22 23 ar
20 22 25 ar
21 9 23 ar
22 9 24 ar
23 12 24 ar
24 12 25 ar
25 14 26 ar
26 26 38 ar
27 14 27 ar
28 16 27 1
29 27 36 ar
30 16 28 1
31 16 29 1
32 29 30 1
33 29 35 1
34 30 31 1
35 18 31 1
36 10 32 2
37 18 32 1
38 32 33 1
39 18 34 1
40 34 35 1
41 36 37 ar
42 37 38 ar
43 19 39 ar
44 17 40 1
45 39 41 1
@<TRIPOS>SUBSTRUCTURE
1	RES1	1	GROUP	1 ****	RES
