# created with PyMOL 2.5.2
@<TRIPOS>MOLECULE
BRAF_5CSX_TargetProtein
41 45 1                 
SMALL
USER_CHARGES
@<TRIPOS>ATOM
1	  C1	22.662	-69.185	85.744	C.3	1	RES1	0.000	
2	  N1	20.477	-70.170	90.369	N.pl3	1	RES1	0.000	
3	  O1	23.002	-69.839	90.410	O.2	1	RES1	0.000	
4	  S1	21.997	-70.464	89.614	S.O2	1	RES1	0.000	
5	  C2	22.975	-69.745	87.117	C.3	1	RES1	0.000	
6	  N2	17.547	-73.976	89.368	N.2	1	RES1	0.000	
7	  O2	22.099	-71.882	89.263	O.2	1	RES1	0.000	
8	  C3	21.851	-69.508	88.079	C.3	1	RES1	0.000	
9	  N3	17.296	-78.344	85.711	N.2	1	RES1	0.000	
10	  O3	15.453	-84.127	92.728	O.2	1	RES1	0.000	
11	  C4	19.272	-70.699	89.754	C.2	1	RES1	0.000	
12	  N4	16.257	-79.522	87.528	N.2	1	RES1	0.000	
13	  C5	18.386	-69.843	89.081	C.2	1	RES1	0.000	
14	  N5	16.874	-76.985	91.075	N.2	1	RES1	0.000	
15	  C6	17.261	-70.371	88.490	C.2	1	RES1	0.000	
16	  N6	16.568	-77.693	93.341	N.pl3	1	RES1	0.000	
17	  C7	16.946	-71.721	88.596	C.2	1	RES1	0.000	
18	  N7	15.652	-81.852	92.906	N.pl3	1	RES1	0.000	
19	  C8	17.831	-72.592	89.266	C.2	1	RES1	0.000	
20	  C9	17.440	-74.822	88.290	C.2	1	RES1	0.000	
21	 C10	17.177	-76.086	88.759	C.2	1	RES1	0.000	
22	 C11	17.020	-77.253	87.878	C.2	1	RES1	0.000	
23	 C12	17.445	-77.287	86.537	C.2	1	RES1	0.000	
24	 C13	16.721	-79.435	86.270	C.2	1	RES1	0.000	
25	 C14	16.427	-78.431	88.308	C.2	1	RES1	0.000	
26	 C15	17.115	-75.985	90.177	C.2	1	RES1	0.000	
27	 C16	16.844	-76.681	92.394	C.2	1	RES1	0.000	
28	 C17	16.624	-77.398	94.787	C.3	1	RES1	0.000	
29	 C18	16.036	-78.991	92.841	C.3	1	RES1	0.000	
30	 C19	15.106	-79.643	93.865	C.3	1	RES1	0.000	
31	 C20	14.562	-80.980	93.344	C.3	1	RES1	0.000	
32	 C21	15.716	-83.151	93.389	C.2	1	RES1	0.000	
33	 C22	16.125	-83.328	94.843	C.3	1	RES1	0.000	
34	 C45	16.584	-81.276	91.905	C.3	1	RES1	0.000	
35	 C46	17.160	-79.923	92.414	C.3	1	RES1	0.000	
36	 C47	17.036	-75.339	92.800	C.2	1	RES1	0.000	
37	 C48	17.286	-74.324	91.875	C.2	1	RES1	0.000	
38	 C49	17.355	-74.693	90.519	C.2	1	RES1	0.000	
39	 C50	19.013	-72.074	89.842	C.2	1	RES1	0.000	
40	  F1	15.821	-72.180	88.074	 F	1	RES1	0.000	
41	  F2	19.857	-72.881	90.461	 F	1	RES1	0.000	
@<TRIPOS>BOND
1 1 5 1
2 2 4 1
3 2 11 1
4 3 4 2
5 4 7 2
6 4 8 1
7 5 8 1
8 6 19 1
9 6 20 ar
10 6 38 ar
11 11 13 ar
12 11 39 ar
13 13 15 ar
14 15 17 ar
15 17 19 ar
16 20 21 ar
17 21 22 1
18 21 26 ar
19 22 23 ar
20 22 25 ar
21 9 23 ar
22 9 24 ar
23 12 24 ar
24 12 25 ar
25 14 26 ar
26 26 38 ar
27 14 27 ar
28 16 27 1
29 27 36 ar
30 16 28 1
31 16 29 1
32 29 30 1
33 29 35 1
34 30 31 1
35 18 31 1
36 10 32 2
37 18 32 1
38 32 33 1
39 18 34 1
40 34 35 1
41 36 37 ar
42 37 38 ar
43 19 39 ar
44 17 40 1
45 39 41 1
@<TRIPOS>SUBSTRUCTURE
1	RES1	1	GROUP	1 ****	RES
