# created with PyMOL 2.5.2
@<TRIPOS>MOLECULE
BRD4_6C7R_TargetProtein
35 40 1                 
SMALL
USER_CHARGES
@<TRIPOS>ATOM
1	  C1	-2.370	9.033	26.532	C.3	1	RES1	0.000	
2	  N1	-1.842	8.441	24.161	N.2	1	RES1	0.000	
3	  O1	5.701	5.359	25.829	O.2	1	RES1	0.000	
4	  C2	-2.602	8.059	25.368	C.3	1	RES1	0.000	
5	  N2	-2.505	9.023	23.133	N.2	1	RES1	0.000	
6	  C3	-1.571	9.211	22.230	C.2	1	RES1	0.000	
7	  N3	0.306	7.714	24.892	N.pl3	1	RES1	0.000	
8	  C4	-1.860	9.837	20.869	C.3	1	RES1	0.000	
9	  N4	2.525	6.814	25.358	N.2	1	RES1	0.000	
10	  C5	-2.898	10.936	20.732	C.3	1	RES1	0.000	
11	  C6	-3.202	9.598	20.200	C.3	1	RES1	0.000	
12	  O6	-3.115	5.325	21.085	O.3	1	RES1	0.000	
13	  C7	-0.272	8.754	22.669	C.2	1	RES1	0.000	
14	  O7	-2.419	2.240	17.779	O.2	1	RES1	0.000	
15	  C8	-0.502	8.270	23.935	C.2	1	RES1	0.000	
16	  C9	1.358	6.745	24.671	C.2	1	RES1	0.000	
17	  N9	3.480	4.933	24.215	N.2	1	RES1	0.000	
18	 C10	3.485	5.926	25.109	C.2	1	RES1	0.000	
19	 N10	-3.493	1.940	18.612	N.2	1	RES1	0.000	
20	 C11	4.737	6.082	25.958	C.2	1	RES1	0.000	
21	 N11	2.034	3.987	22.585	N.2	1	RES1	0.000	
22	 C29	2.302	4.882	23.558	C.2	1	RES1	0.000	
23	 C30	1.213	5.748	23.690	C.2	1	RES1	0.000	
24	 C31	0.233	5.266	22.778	C.2	1	RES1	0.000	
25	 C32	-1.065	5.662	22.457	C.2	1	RES1	0.000	
26	 C33	-1.806	4.968	21.459	C.2	1	RES1	0.000	
27	 C34	-3.807	6.303	21.863	C.3	1	RES1	0.000	
28	 C35	-1.207	3.899	20.806	C.2	1	RES1	0.000	
29	 C36	-1.944	3.148	19.774	C.2	1	RES1	0.000	
30	 C37	-1.526	2.998	18.479	C.2	1	RES1	0.000	
31	 C38	-0.328	3.401	17.687	C.3	1	RES1	0.000	
32	 C39	-3.205	2.490	19.803	C.2	1	RES1	0.000	
33	 C40	-4.140	2.324	20.945	C.3	1	RES1	0.000	
34	 C41	0.072	3.489	21.107	C.2	1	RES1	0.000	
35	 C42	0.760	4.182	22.101	C.2	1	RES1	0.000	
@<TRIPOS>BOND
1 1 4 1
2 2 4 1
3 2 5 ar
4 2 15 ar
5 3 20 2
6 5 6 ar
7 6 8 1
8 6 13 ar
9 7 15 1
10 7 16 1
11 8 10 1
12 8 11 1
13 9 16 ar
14 10 11 1
15 13 15 ar
16 9 18 ar
17 17 18 ar
18 18 20 1
19 14 19 ar
20 19 32 ar
21 21 22 ar
22 21 35 ar
23 17 22 ar
24 22 23 ar
25 16 23 ar
26 23 24 ar
27 24 25 ar
28 24 35 ar
29 25 26 ar
30 12 26 1
31 26 28 ar
32 12 27 1
33 28 29 1
34 28 34 ar
35 29 30 ar
36 29 32 ar
37 14 30 ar
38 30 31 1
39 32 33 1
40 34 35 ar
@<TRIPOS>SUBSTRUCTURE
1	RES1	1	GROUP	1 ****	RES
