# created with PyMOL 2.5.2
@<TRIPOS>MOLECULE
BRAF_5CSX_TargetProtein
41 45 1                 
SMALL
USER_CHARGES
@<TRIPOS>ATOM
1	  C1	22.448	-69.505	85.521	C.3	1	RES1	0.000	
2	  N1	20.269	-70.132	90.177	N.pl3	1	RES1	0.000	
3	  O1	21.817	-71.938	89.181	O.2	1	RES1	0.000	
4	  S1	21.807	-70.504	89.444	S.O2	1	RES1	0.000	
5	  C2	22.770	-69.985	86.904	C.3	1	RES1	0.000	
6	  N2	17.562	-74.180	89.601	N.2	1	RES1	0.000	
7	  O2	22.880	-69.883	90.180	O.2	1	RES1	0.000	
8	  C3	21.587	-69.672	87.869	C.3	1	RES1	0.000	
9	  N3	17.213	-78.971	86.524	N.2	1	RES1	0.000	
10	  O3	17.166	-82.410	90.439	O.2	1	RES1	0.000	
11	  C4	19.137	-70.814	89.631	C.2	1	RES1	0.000	
12	  N4	16.133	-79.915	88.459	N.2	1	RES1	0.000	
13	  C5	18.277	-70.101	88.804	C.2	1	RES1	0.000	
14	  N5	16.965	-76.969	91.683	N.2	1	RES1	0.000	
15	  C6	17.183	-70.733	88.221	C.2	1	RES1	0.000	
16	  N6	16.805	-77.441	94.010	N.pl3	1	RES1	0.000	
17	  C7	16.937	-72.095	88.489	C.2	1	RES1	0.000	
18	  N7	16.041	-81.111	91.985	N.pl3	1	RES1	0.000	
19	  C8	17.789	-72.814	89.332	C.2	1	RES1	0.000	
20	  C9	17.430	-75.186	88.628	C.2	1	RES1	0.000	
21	 C10	17.201	-76.379	89.252	C.2	1	RES1	0.000	
22	 C11	17.000	-77.617	88.520	C.2	1	RES1	0.000	
23	 C12	17.394	-77.800	87.205	C.2	1	RES1	0.000	
24	 C13	16.599	-79.964	87.185	C.2	1	RES1	0.000	
25	 C14	16.356	-78.738	89.092	C.2	1	RES1	0.000	
26	 C15	17.167	-76.123	90.647	C.2	1	RES1	0.000	
27	 C16	17.034	-76.488	92.942	C.2	1	RES1	0.000	
28	 C17	16.933	-76.937	95.368	C.3	1	RES1	0.000	
29	 C18	16.324	-78.819	93.714	C.3	1	RES1	0.000	
30	 C19	17.502	-79.793	93.452	C.3	1	RES1	0.000	
31	 C20	16.996	-81.181	93.108	C.3	1	RES1	0.000	
32	 C21	16.129	-81.881	90.815	C.2	1	RES1	0.000	
33	 C22	14.877	-82.066	90.016	C.3	1	RES1	0.000	
34	 C47	14.910	-80.229	92.185	C.3	1	RES1	0.000	
35	 C48	15.354	-78.834	92.546	C.3	1	RES1	0.000	
36	 C49	17.249	-75.123	93.187	C.2	1	RES1	0.000	
37	 C50	17.452	-74.232	92.123	C.2	1	RES1	0.000	
38	 C51	17.399	-74.745	90.839	C.2	1	RES1	0.000	
39	 C52	18.888	-72.175	89.900	C.2	1	RES1	0.000	
40	  F1	15.889	-72.678	87.893	 F	1	RES1	0.000	
41	  F2	19.734	-72.851	90.717	 F	1	RES1	0.000	
@<TRIPOS>BOND
1 1 5 1
2 2 4 1
3 2 11 1
4 3 4 2
5 4 7 2
6 4 8 1
7 5 8 1
8 6 19 1
9 6 20 ar
10 6 38 ar
11 11 13 ar
12 11 39 ar
13 13 15 ar
14 15 17 ar
15 17 19 ar
16 20 21 ar
17 21 22 1
18 21 26 ar
19 22 23 ar
20 22 25 ar
21 9 23 ar
22 9 24 ar
23 12 24 ar
24 12 25 ar
25 14 26 ar
26 26 38 ar
27 14 27 ar
28 16 27 1
29 27 36 ar
30 16 28 1
31 16 29 1
32 29 30 1
33 29 35 1
34 30 31 1
35 18 31 1
36 10 32 2
37 18 32 1
38 32 33 1
39 18 34 1
40 34 35 1
41 36 37 ar
42 37 38 ar
43 19 39 ar
44 17 40 1
45 39 41 1
@<TRIPOS>SUBSTRUCTURE
1	RES1	1	GROUP	1 ****	RES
