# created with PyMOL 2.5.2
@<TRIPOS>MOLECULE
BRAF_5CSX_TargetProtein
41 45 1                 
SMALL
USER_CHARGES
@<TRIPOS>ATOM
1	  C1	22.507	-69.237	85.732	C.3	1	RES1	0.000	
2	  N1	20.480	-70.079	90.384	N.pl3	1	RES1	0.000	
3	  O1	21.947	-71.831	89.269	O.2	1	RES1	0.000	
4	  S1	21.946	-70.427	89.619	S.O2	1	RES1	0.000	
5	  C2	22.846	-69.783	87.093	C.3	1	RES1	0.000	
6	  N2	17.644	-73.991	89.373	N.2	1	RES1	0.000	
7	  O2	23.096	-69.860	90.352	O.2	1	RES1	0.000	
8	  C3	21.734	-69.503	88.086	C.3	1	RES1	0.000	
9	  N3	16.182	-79.476	87.496	N.2	1	RES1	0.000	
10	  O3	15.509	-84.166	92.795	O.2	1	RES1	0.000	
11	  C4	19.288	-70.680	89.814	C.2	1	RES1	0.000	
12	  N4	17.331	-78.352	85.712	N.2	1	RES1	0.000	
13	  C5	18.399	-69.848	89.098	C.2	1	RES1	0.000	
14	  N5	16.886	-76.988	91.079	N.2	1	RES1	0.000	
15	  C6	17.278	-70.421	88.483	C.2	1	RES1	0.000	
16	  N6	16.548	-77.688	93.332	N.pl3	1	RES1	0.000	
17	  C7	17.026	-71.767	88.574	C.2	1	RES1	0.000	
18	  N7	15.634	-81.834	92.897	N.pl3	1	RES1	0.000	
19	  C8	17.917	-72.616	89.303	C.2	1	RES1	0.000	
20	  C9	17.524	-74.851	88.303	C.2	1	RES1	0.000	
21	 C10	17.224	-76.090	88.744	C.2	1	RES1	0.000	
22	 C11	17.033	-77.265	87.856	C.2	1	RES1	0.000	
23	 C12	16.368	-78.421	88.290	C.2	1	RES1	0.000	
24	 C13	16.652	-79.387	86.265	C.2	1	RES1	0.000	
25	 C14	17.468	-77.294	86.550	C.2	1	RES1	0.000	
26	 C15	17.120	-75.992	90.175	C.2	1	RES1	0.000	
27	 C16	16.879	-76.685	92.377	C.2	1	RES1	0.000	
28	 C17	16.620	-77.459	94.766	C.3	1	RES1	0.000	
29	 C18	15.990	-78.965	92.806	C.3	1	RES1	0.000	
30	 C19	15.041	-79.624	93.845	C.3	1	RES1	0.000	
31	 C20	14.531	-80.951	93.316	C.3	1	RES1	0.000	
32	 C21	15.717	-83.139	93.441	C.2	1	RES1	0.000	
33	 C22	16.134	-83.239	94.871	C.3	1	RES1	0.000	
34	 C47	16.533	-81.269	91.885	C.3	1	RES1	0.000	
35	 C48	17.106	-79.949	92.392	C.3	1	RES1	0.000	
36	 C49	17.133	-75.372	92.794	C.2	1	RES1	0.000	
37	 C50	17.417	-74.359	91.884	C.2	1	RES1	0.000	
38	 C51	17.404	-74.714	90.552	C.2	1	RES1	0.000	
39	 C52	19.029	-72.055	89.904	C.2	1	RES1	0.000	
40	  F1	15.953	-72.292	87.975	 F	1	RES1	0.000	
41	  F2	19.866	-72.822	90.627	 F	1	RES1	0.000	
@<TRIPOS>BOND
1 1 5 1
2 2 4 1
3 2 11 1
4 3 4 2
5 4 7 2
6 4 8 1
7 5 8 1
8 6 19 1
9 6 20 ar
10 6 38 ar
11 11 13 ar
12 11 39 ar
13 13 15 ar
14 15 17 ar
15 17 19 ar
16 20 21 ar
17 21 22 1
18 21 26 ar
19 22 23 ar
20 22 25 ar
21 9 23 ar
22 9 24 ar
23 12 24 ar
24 12 25 ar
25 14 26 ar
26 26 38 ar
27 14 27 ar
28 16 27 1
29 27 36 ar
30 16 28 1
31 16 29 1
32 29 30 1
33 29 35 1
34 30 31 1
35 18 31 1
36 10 32 2
37 18 32 1
38 32 33 1
39 18 34 1
40 34 35 1
41 36 37 ar
42 37 38 ar
43 19 39 ar
44 17 40 1
45 39 41 1
@<TRIPOS>SUBSTRUCTURE
1	RES1	1	GROUP	1 ****	RES
