# created with PyMOL 2.5.2
@<TRIPOS>MOLECULE
BRD4_5UVY_TargetProtein
26 29 1                 
SMALL
USER_CHARGES
@<TRIPOS>ATOM
1	  N2	16.746	10.213	16.252	N.2	1	RES1	0.000	
2	  C3	11.567	10.574	18.620	C.2	1	RES1	0.000	
3	  O3	15.102	11.042	20.814	O.3	1	RES1	0.000	
4	  C4	11.564	10.496	20.028	C.2	1	RES1	0.000	
5	  O4	18.656	11.405	15.610	O.2	1	RES1	0.000	
6	  C5	12.726	10.667	20.709	C.2	1	RES1	0.000	
7	  C6	13.949	10.924	20.023	C.2	1	RES1	0.000	
8	  C7	14.899	10.850	22.199	C.2	1	RES1	0.000	
9	  C8	14.520	11.847	23.089	C.2	1	RES1	0.000	
10	  C9	14.349	11.566	24.446	C.2	1	RES1	0.000	
11	 C10	14.596	10.293	24.895	C.2	1	RES1	0.000	
12	 N10	17.761	13.550	17.413	N.2	1	RES1	0.000	
13	 C11	14.954	9.273	24.043	C.2	1	RES1	0.000	
14	 C12	15.119	9.549	22.677	C.2	1	RES1	0.000	
15	 C13	13.969	10.974	18.615	C.2	1	RES1	0.000	
16	 C14	15.217	11.176	17.848	C.2	1	RES1	0.000	
17	 C15	15.572	10.166	17.004	C.2	1	RES1	0.000	
18	 C16	17.059	9.072	15.400	C.3	1	RES1	0.000	
19	 C17	17.606	11.324	16.252	C.2	1	RES1	0.000	
20	 C18	17.167	12.372	17.147	C.2	1	RES1	0.000	
21	 C19	16.032	12.314	17.898	C.2	1	RES1	0.000	
22	 C20	15.908	13.502	18.672	C.2	1	RES1	0.000	
23	 C21	17.031	14.254	18.330	C.2	1	RES1	0.000	
24	 C43	12.751	10.767	17.944	C.2	1	RES1	0.000	
25	  F1	14.433	9.999	26.201	 F	1	RES1	0.000	
26	  F2	15.470	8.590	21.853	 F	1	RES1	0.000	
@<TRIPOS>BOND
1 2 4 ar
2 2 24 ar
3 3 7 1
4 3 8 1
5 4 6 ar
6 6 7 ar
7 8 9 ar
8 9 10 ar
9 10 11 ar
10 11 13 ar
11 12 20 ar
12 12 23 ar
13 13 14 ar
14 8 14 ar
15 14 26 1
16 7 15 ar
17 15 16 1
18 15 24 ar
19 16 17 ar
20 16 21 ar
21 1 17 ar
22 1 18 1
23 1 19 ar
24 5 19 2
25 19 20 ar
26 20 21 ar
27 21 22 ar
28 22 23 ar
29 11 25 1
@<TRIPOS>SUBSTRUCTURE
1	RES1	1	GROUP	1 ****	RES
