# created with PyMOL 2.5.2
@<TRIPOS>MOLECULE
BRD4_5UVY_TargetProtein
26 29 1                 
SMALL
USER_CHARGES
@<TRIPOS>ATOM
1	  N2	16.746	10.254	16.192	N.2	1	RES1	0.000	
2	  C3	11.562	10.652	18.626	C.2	1	RES1	0.000	
3	  O3	15.139	10.862	20.817	O.3	1	RES1	0.000	
4	  C4	11.563	10.596	20.032	C.2	1	RES1	0.000	
5	  O4	18.602	11.515	15.556	O.2	1	RES1	0.000	
6	  C5	12.768	10.654	20.705	C.2	1	RES1	0.000	
7	  C6	13.957	10.792	20.022	C.2	1	RES1	0.000	
8	  C7	14.955	10.654	22.184	C.2	1	RES1	0.000	
9	  C8	15.018	9.414	22.818	C.2	1	RES1	0.000	
10	  C9	14.785	9.336	24.187	C.2	1	RES1	0.000	
11	 C10	14.517	10.473	24.933	C.2	1	RES1	0.000	
12	 N10	17.722	13.588	17.431	N.2	1	RES1	0.000	
13	 C11	14.454	11.746	24.302	C.2	1	RES1	0.000	
14	 C12	14.673	11.813	22.949	C.2	1	RES1	0.000	
15	 C13	13.979	10.888	18.621	C.2	1	RES1	0.000	
16	 C14	15.223	11.106	17.851	C.2	1	RES1	0.000	
17	 C15	15.623	10.135	16.989	C.2	1	RES1	0.000	
18	 C16	17.068	9.144	15.313	C.3	1	RES1	0.000	
19	 C17	17.616	11.383	16.219	C.2	1	RES1	0.000	
20	 C18	17.156	12.373	17.179	C.2	1	RES1	0.000	
21	 C19	16.038	12.263	17.966	C.2	1	RES1	0.000	
22	 C20	15.894	13.443	18.720	C.2	1	RES1	0.000	
23	 C21	16.995	14.257	18.381	C.2	1	RES1	0.000	
24	 C45	12.763	10.830	17.933	C.2	1	RES1	0.000	
25	  F1	14.321	10.369	26.250	 F	1	RES1	0.000	
26	  F2	14.596	13.046	22.367	 F	1	RES1	0.000	
@<TRIPOS>BOND
1 2 4 ar
2 2 24 ar
3 3 7 1
4 3 8 1
5 4 6 ar
6 6 7 ar
7 8 9 ar
8 9 10 ar
9 10 11 ar
10 11 13 ar
11 12 20 ar
12 12 23 ar
13 13 14 ar
14 8 14 ar
15 14 26 1
16 7 15 ar
17 15 16 1
18 15 24 ar
19 16 17 ar
20 16 21 ar
21 1 17 ar
22 1 18 1
23 1 19 ar
24 5 19 2
25 19 20 ar
26 20 21 ar
27 21 22 ar
28 22 23 ar
29 11 25 1
@<TRIPOS>SUBSTRUCTURE
1	RES1	1	GROUP	1 ****	RES
