# created with PyMOL 2.5.2
@<TRIPOS>MOLECULE
BRD4_5UVY_TargetProtein
26 29 1                 
SMALL
USER_CHARGES
@<TRIPOS>ATOM
1	  N2	16.742	10.259	16.205	N.2	1	RES1	0.000	
2	  C3	11.591	10.649	18.566	C.2	1	RES1	0.000	
3	  O3	15.067	10.881	20.823	O.3	1	RES1	0.000	
4	  C4	11.538	10.563	19.964	C.2	1	RES1	0.000	
5	  O4	18.595	11.491	15.544	O.2	1	RES1	0.000	
6	  C5	12.700	10.645	20.693	C.2	1	RES1	0.000	
7	  C6	13.929	10.799	20.047	C.2	1	RES1	0.000	
8	  C7	14.920	10.682	22.201	C.2	1	RES1	0.000	
9	  C8	15.002	9.429	22.816	C.2	1	RES1	0.000	
10	  C9	14.864	9.324	24.202	C.2	1	RES1	0.000	
11	 C10	14.601	10.470	24.958	C.2	1	RES1	0.000	
12	 N10	17.756	13.588	17.427	N.2	1	RES1	0.000	
13	 C11	14.481	11.703	24.364	C.2	1	RES1	0.000	
14	 C12	14.633	11.815	22.983	C.2	1	RES1	0.000	
15	 C13	13.969	10.901	18.616	C.2	1	RES1	0.000	
16	 C14	15.229	11.119	17.862	C.2	1	RES1	0.000	
17	 C15	15.606	10.142	17.009	C.2	1	RES1	0.000	
18	 C16	17.073	9.133	15.305	C.3	1	RES1	0.000	
19	 C17	17.598	11.366	16.243	C.2	1	RES1	0.000	
20	 C18	17.140	12.389	17.165	C.2	1	RES1	0.000	
21	 C19	16.037	12.266	17.948	C.2	1	RES1	0.000	
22	 C20	15.942	13.478	18.706	C.2	1	RES1	0.000	
23	 C21	17.020	14.270	18.372	C.2	1	RES1	0.000	
24	 C47	12.779	10.808	17.903	C.2	1	RES1	0.000	
25	  F1	14.472	10.360	26.285	 F	1	RES1	0.000	
26	  F2	14.556	13.035	22.381	 F	1	RES1	0.000	
@<TRIPOS>BOND
1 2 4 ar
2 2 24 ar
3 3 7 1
4 3 8 1
5 4 6 ar
6 6 7 ar
7 8 9 ar
8 9 10 ar
9 10 11 ar
10 11 13 ar
11 12 20 ar
12 12 23 ar
13 13 14 ar
14 8 14 ar
15 14 26 1
16 7 15 ar
17 15 16 1
18 15 24 ar
19 16 17 ar
20 16 21 ar
21 1 17 ar
22 1 18 1
23 1 19 ar
24 5 19 2
25 19 20 ar
26 20 21 ar
27 21 22 ar
28 22 23 ar
29 11 25 1
@<TRIPOS>SUBSTRUCTURE
1	RES1	1	GROUP	1 ****	RES
