# created with PyMOL 2.5.2
@<TRIPOS>MOLECULE
BRD4_5UVY_TargetProtein
26 29 1                 
SMALL
USER_CHARGES
@<TRIPOS>ATOM
1	  N2	16.735	10.237	16.216	N.2	1	RES1	0.000	
2	  C3	11.531	10.593	18.587	C.2	1	RES1	0.000	
3	  O3	15.061	10.968	20.800	O.3	1	RES1	0.000	
4	  C4	11.536	10.463	19.980	C.2	1	RES1	0.000	
5	  O4	18.657	11.403	15.654	O.2	1	RES1	0.000	
6	  C5	12.714	10.617	20.714	C.2	1	RES1	0.000	
7	  C6	13.909	10.844	20.010	C.2	1	RES1	0.000	
8	  C7	14.931	10.802	22.165	C.2	1	RES1	0.000	
9	  C8	14.504	11.858	23.022	C.2	1	RES1	0.000	
10	  C9	14.385	11.651	24.399	C.2	1	RES1	0.000	
11	 C10	14.655	10.378	24.911	C.2	1	RES1	0.000	
12	 N10	17.776	13.528	17.487	N.2	1	RES1	0.000	
13	 C11	15.038	9.325	24.101	C.2	1	RES1	0.000	
14	 C12	15.151	9.547	22.726	C.2	1	RES1	0.000	
15	 C13	13.941	10.964	18.580	C.2	1	RES1	0.000	
16	 C14	15.167	11.152	17.820	C.2	1	RES1	0.000	
17	 C15	15.545	10.166	16.978	C.2	1	RES1	0.000	
18	 C16	17.036	9.105	15.343	C.3	1	RES1	0.000	
19	 C17	17.635	11.321	16.295	C.2	1	RES1	0.000	
20	 C18	17.188	12.352	17.189	C.2	1	RES1	0.000	
21	 C19	16.019	12.307	17.931	C.2	1	RES1	0.000	
22	 C20	15.939	13.504	18.708	C.2	1	RES1	0.000	
23	 C21	17.051	14.243	18.422	C.2	1	RES1	0.000	
24	 C49	12.714	10.841	17.889	C.2	1	RES1	0.000	
25	  F1	14.518	10.169	26.260	 F	1	RES1	0.000	
26	  F2	15.548	8.544	21.934	 F	1	RES1	0.000	
@<TRIPOS>BOND
1 2 4 ar
2 2 24 ar
3 3 7 1
4 3 8 1
5 4 6 ar
6 6 7 ar
7 8 9 ar
8 9 10 ar
9 10 11 ar
10 11 13 ar
11 12 20 ar
12 12 23 ar
13 13 14 ar
14 8 14 ar
15 14 26 1
16 7 15 ar
17 15 16 1
18 15 24 ar
19 16 17 ar
20 16 21 ar
21 1 17 ar
22 1 18 1
23 1 19 ar
24 5 19 2
25 19 20 ar
26 20 21 ar
27 21 22 ar
28 22 23 ar
29 11 25 1
@<TRIPOS>SUBSTRUCTURE
1	RES1	1	GROUP	1 ****	RES
