# created with PyMOL 2.5.2
@<TRIPOS>MOLECULE
EGFR_6JWL_TargetProtein
37 40 1                 
SMALL
USER_CHARGES
@<TRIPOS>ATOM
1	  C1	-49.520	-5.550	-17.569	C.3	1	RES1	0.000	
2	  N1	-49.449	-2.182	-16.574	N.pl3	1	RES1	0.000	
3	  O1	-50.340	-2.957	-18.617	O.2	1	RES1	0.000	
4	  C2	-48.931	-4.371	-17.363	C.3	1	RES1	0.000	
5	  N2	-52.378	1.471	-18.243	N.pl3	1	RES1	0.000	
6	  O2	-51.955	2.849	-15.955	O.3	1	RES1	0.000	
7	  C3	-49.663	-3.085	-17.612	C.2	1	RES1	0.000	
8	  N3	-53.384	2.041	-20.327	N.2	1	RES1	0.000	
9	  C4	-50.041	-0.898	-16.473	C.2	1	RES1	0.000	
10	  N4	-49.295	-1.460	-23.627	N.2	1	RES1	0.000	
11	  C5	-50.889	-0.339	-17.437	C.2	1	RES1	0.000	
12	  N5	-51.489	0.670	-20.230	N.2	1	RES1	0.000	
13	  C6	-51.513	0.890	-17.274	C.2	1	RES1	0.000	
14	  N6	-48.898	-0.693	-14.258	N.pl3	1	RES1	0.000	
15	  C7	-52.454	1.411	-19.631	C.2	1	RES1	0.000	
16	  N7	-46.529	-2.672	-14.497	N.3	1	RES1	0.000	
17	  C8	-53.373	1.931	-21.683	C.2	1	RES1	0.000	
18	  C9	-52.449	1.186	-22.358	C.2	1	RES1	0.000	
19	 C10	-51.483	0.556	-21.564	C.2	1	RES1	0.000	
20	 C11	-50.402	-0.251	-22.141	C.2	1	RES1	0.000	
21	 C12	-50.432	-0.786	-23.423	C.2	1	RES1	0.000	
22	 C13	-48.956	-2.203	-24.855	C.3	1	RES1	0.000	
23	 C14	-48.468	-1.391	-22.527	C.2	1	RES1	0.000	
24	 C15	-47.191	-1.953	-22.303	C.2	1	RES1	0.000	
25	 C16	-46.611	-1.701	-21.045	C.2	1	RES1	0.000	
26	 C17	-47.257	-0.951	-20.105	C.2	1	RES1	0.000	
27	 C18	-48.520	-0.402	-20.338	C.2	1	RES1	0.000	
28	 C19	-49.142	-0.635	-21.566	C.2	1	RES1	0.000	
29	 C20	-51.254	1.590	-16.081	C.2	1	RES1	0.000	
30	 C21	-51.859	3.496	-14.661	C.3	1	RES1	0.000	
31	 C22	-50.396	1.059	-15.085	C.2	1	RES1	0.000	
32	 C23	-49.794	-0.175	-15.266	C.2	1	RES1	0.000	
33	 C24	-49.451	-0.931	-12.926	C.3	1	RES1	0.000	
34	 C25	-47.451	-0.342	-14.402	C.3	1	RES1	0.000	
35	 C26	-46.540	-1.355	-13.782	C.3	1	RES1	0.000	
36	 C27	-47.772	-2.826	-15.314	C.3	1	RES1	0.000	
37	 C28	-46.426	-3.807	-13.596	C.3	1	RES1	0.000	
@<TRIPOS>BOND
1 1 4 1
2 2 7 1
3 2 9 1
4 3 7 2
5 4 7 1
6 5 13 1
7 5 15 1
8 6 29 1
9 6 30 1
10 8 15 ar
11 8 17 ar
12 9 11 ar
13 11 13 ar
14 12 15 ar
15 17 18 ar
16 12 19 ar
17 18 19 ar
18 19 20 1
19 20 21 ar
20 20 28 ar
21 10 21 ar
22 10 22 1
23 10 23 ar
24 23 24 ar
25 23 28 ar
26 24 25 ar
27 25 26 ar
28 26 27 ar
29 27 28 ar
30 13 29 ar
31 29 31 ar
32 31 32 ar
33 9 32 ar
34 14 32 1
35 14 33 1
36 14 34 1
37 34 35 1
38 16 35 1
39 16 36 1
40 16 37 1
@<TRIPOS>SUBSTRUCTURE
1	RES1	1	GROUP	1 ****	RES
