# created with PyMOL 2.5.2
@<TRIPOS>MOLECULE
EGFR_6JWL_TargetProtein
37 40 1                 
SMALL
USER_CHARGES
@<TRIPOS>ATOM
1	  C1	-49.057	-5.518	-17.514	C.3	1	RES1	0.000	
2	  N1	-49.364	-2.123	-16.604	N.pl3	1	RES1	0.000	
3	  O1	-50.384	-3.052	-18.493	O.2	1	RES1	0.000	
4	  C2	-48.617	-4.251	-17.397	C.3	1	RES1	0.000	
5	  N2	-52.377	1.451	-18.246	N.pl3	1	RES1	0.000	
6	  O2	-51.895	2.872	-15.996	O.3	1	RES1	0.000	
7	  C3	-49.540	-3.092	-17.573	C.2	1	RES1	0.000	
8	  N3	-53.432	2.026	-20.297	N.2	1	RES1	0.000	
9	  C4	-50.044	-0.886	-16.436	C.2	1	RES1	0.000	
10	  N4	-49.342	-1.444	-23.704	N.2	1	RES1	0.000	
11	  C5	-50.871	-0.355	-17.418	C.2	1	RES1	0.000	
12	  N5	-51.487	0.694	-20.240	N.2	1	RES1	0.000	
13	  C6	-51.512	0.865	-17.273	C.2	1	RES1	0.000	
14	  N6	-48.885	-0.660	-14.274	N.pl3	1	RES1	0.000	
15	  C7	-52.458	1.388	-19.642	C.2	1	RES1	0.000	
16	  N7	-46.672	-2.844	-14.355	N.3	1	RES1	0.000	
17	  C8	-53.443	1.896	-21.664	C.2	1	RES1	0.000	
18	  C9	-52.485	1.224	-22.364	C.2	1	RES1	0.000	
19	 C10	-51.505	0.571	-21.566	C.2	1	RES1	0.000	
20	 C11	-50.444	-0.222	-22.187	C.2	1	RES1	0.000	
21	 C12	-50.486	-0.742	-23.459	C.2	1	RES1	0.000	
22	 C13	-49.029	-2.139	-24.946	C.3	1	RES1	0.000	
23	 C14	-48.504	-1.387	-22.594	C.2	1	RES1	0.000	
24	 C15	-47.246	-1.931	-22.346	C.2	1	RES1	0.000	
25	 C16	-46.631	-1.718	-21.151	C.2	1	RES1	0.000	
26	 C17	-47.273	-0.940	-20.161	C.2	1	RES1	0.000	
27	 C18	-48.531	-0.422	-20.385	C.2	1	RES1	0.000	
28	 C19	-49.191	-0.607	-21.635	C.2	1	RES1	0.000	
29	 C20	-51.243	1.607	-16.086	C.2	1	RES1	0.000	
30	 C21	-51.742	3.538	-14.740	C.3	1	RES1	0.000	
31	 C22	-50.385	1.095	-15.129	C.2	1	RES1	0.000	
32	 C23	-49.751	-0.155	-15.294	C.2	1	RES1	0.000	
33	 C24	-49.507	-0.669	-12.938	C.3	1	RES1	0.000	
34	 C25	-47.428	-0.409	-14.354	C.3	1	RES1	0.000	
35	 C26	-46.624	-1.531	-13.649	C.3	1	RES1	0.000	
36	 C27	-47.831	-2.913	-15.219	C.3	1	RES1	0.000	
37	 C28	-46.727	-3.981	-13.372	C.3	1	RES1	0.000	
@<TRIPOS>BOND
1 1 4 1
2 2 7 1
3 2 9 1
4 3 7 2
5 4 7 1
6 5 13 1
7 5 15 1
8 6 29 1
9 6 30 1
10 8 15 ar
11 8 17 ar
12 9 11 ar
13 11 13 ar
14 12 15 ar
15 17 18 ar
16 12 19 ar
17 18 19 ar
18 19 20 1
19 20 21 ar
20 20 28 ar
21 10 21 ar
22 10 22 1
23 10 23 ar
24 23 24 ar
25 23 28 ar
26 24 25 ar
27 25 26 ar
28 26 27 ar
29 27 28 ar
30 13 29 ar
31 29 31 ar
32 31 32 ar
33 9 32 ar
34 14 32 1
35 14 33 1
36 14 34 1
37 34 35 1
38 16 35 1
39 16 36 1
40 16 37 1
@<TRIPOS>SUBSTRUCTURE
1	RES1	1	GROUP	1 ****	RES
