# created with PyMOL 2.5.2
@<TRIPOS>MOLECULE
EGFR_6JWL_TargetProtein
37 40 1                 
SMALL
USER_CHARGES
@<TRIPOS>ATOM
1	  C1	-49.507	-5.599	-17.463	C.3	1	RES1	0.000	
2	  N1	-49.453	-2.186	-16.350	N.pl3	1	RES1	0.000	
3	  O1	-50.187	-2.888	-18.494	O.2	1	RES1	0.000	
4	  C2	-48.967	-4.428	-17.211	C.3	1	RES1	0.000	
5	  N2	-52.309	1.390	-18.194	N.pl3	1	RES1	0.000	
6	  O2	-51.929	2.818	-15.946	O.3	1	RES1	0.000	
7	  C3	-49.635	-3.091	-17.417	C.2	1	RES1	0.000	
8	  N3	-53.327	1.944	-20.218	N.2	1	RES1	0.000	
9	  C4	-49.989	-0.897	-16.283	C.2	1	RES1	0.000	
10	  N4	-49.379	-1.386	-23.924	N.2	1	RES1	0.000	
11	  C5	-50.814	-0.378	-17.309	C.2	1	RES1	0.000	
12	  N5	-51.393	0.588	-20.284	N.2	1	RES1	0.000	
13	  C6	-51.442	0.850	-17.202	C.2	1	RES1	0.000	
14	  N6	-48.974	-0.631	-14.025	N.pl3	1	RES1	0.000	
15	  C7	-52.315	1.301	-19.608	C.2	1	RES1	0.000	
16	  N7	-46.745	-2.784	-13.925	N.3	1	RES1	0.000	
17	  C8	-53.398	1.881	-21.547	C.2	1	RES1	0.000	
18	  C9	-52.485	1.177	-22.329	C.2	1	RES1	0.000	
19	 C10	-51.471	0.538	-21.643	C.2	1	RES1	0.000	
20	 C11	-50.415	-0.247	-22.305	C.2	1	RES1	0.000	
21	 C12	-50.515	-0.715	-23.594	C.2	1	RES1	0.000	
22	 C13	-49.132	-1.991	-25.204	C.3	1	RES1	0.000	
23	 C14	-48.535	-1.353	-22.848	C.2	1	RES1	0.000	
24	 C15	-47.244	-1.899	-22.696	C.2	1	RES1	0.000	
25	 C16	-46.581	-1.728	-21.475	C.2	1	RES1	0.000	
26	 C17	-47.194	-1.061	-20.428	C.2	1	RES1	0.000	
27	 C18	-48.478	-0.518	-20.569	C.2	1	RES1	0.000	
28	 C19	-49.157	-0.676	-21.809	C.2	1	RES1	0.000	
29	 C20	-51.261	1.586	-16.021	C.2	1	RES1	0.000	
30	 C21	-51.903	3.510	-14.707	C.3	1	RES1	0.000	
31	 C22	-50.455	1.074	-14.977	C.2	1	RES1	0.000	
32	 C23	-49.816	-0.151	-15.101	C.2	1	RES1	0.000	
33	 C24	-49.553	-0.875	-12.700	C.3	1	RES1	0.000	
34	 C25	-47.515	-0.328	-14.124	C.3	1	RES1	0.000	
35	 C26	-46.673	-1.406	-13.386	C.3	1	RES1	0.000	
36	 C27	-48.094	-3.153	-14.458	C.3	1	RES1	0.000	
37	 C28	-45.697	-3.051	-14.926	C.3	1	RES1	0.000	
@<TRIPOS>BOND
1 1 4 1
2 2 7 1
3 2 9 1
4 3 7 2
5 4 7 1
6 5 13 1
7 5 15 1
8 6 29 1
9 6 30 1
10 8 15 ar
11 8 17 ar
12 9 11 ar
13 11 13 ar
14 12 15 ar
15 17 18 ar
16 12 19 ar
17 18 19 ar
18 19 20 1
19 20 21 ar
20 20 28 ar
21 10 21 ar
22 10 22 1
23 10 23 ar
24 23 24 ar
25 23 28 ar
26 24 25 ar
27 25 26 ar
28 26 27 ar
29 27 28 ar
30 13 29 ar
31 29 31 ar
32 31 32 ar
33 9 32 ar
34 14 32 1
35 14 33 1
36 14 34 1
37 34 35 1
38 16 35 1
39 16 36 1
40 16 37 1
@<TRIPOS>SUBSTRUCTURE
1	RES1	1	GROUP	1 ****	RES
