# created with PyMOL 2.5.2
@<TRIPOS>MOLECULE
BRD2_4ALH_TargetProtein
35 40 1                 
SMALL
USER_CHARGES
@<TRIPOS>ATOM
1	  C1	-3.389	6.675	25.279	C.3	1	RES1	0.000	
2	  N1	-1.888	8.387	24.306	N.2	1	RES1	0.000	
3	  O1	5.710	5.367	25.769	O.3	1	RES1	0.000	
4	  C2	-2.590	7.944	25.516	C.3	1	RES1	0.000	
5	  N2	-2.610	8.973	23.332	N.2	1	RES1	0.000	
6	  C3	-1.676	9.291	22.386	C.2	1	RES1	0.000	
7	  N3	0.345	7.732	24.924	N.pl3	1	RES1	0.000	
8	  C4	-2.052	9.984	21.098	C.3	1	RES1	0.000	
9	  N4	2.558	6.857	25.333	N.2	1	RES1	0.000	
10	  C5	-3.387	9.649	20.472	C.3	1	RES1	0.000	
11	  C6	-2.153	9.181	19.845	C.3	1	RES1	0.000	
12	  C7	-0.383	8.887	22.767	C.2	1	RES1	0.000	
13	  C8	-0.541	8.301	24.051	C.2	1	RES1	0.000	
14	  C9	1.398	6.795	24.645	C.2	1	RES1	0.000	
15	  N9	3.476	4.928	24.194	N.2	1	RES1	0.000	
16	  O9	-3.099	5.484	21.005	O.3	1	RES1	0.000	
17	 C10	3.503	5.933	25.087	C.2	1	RES1	0.000	
18	 N10	-3.517	2.013	18.618	N.2	1	RES1	0.000	
19	 O10	-2.445	2.328	17.765	O.2	1	RES1	0.000	
20	 C11	4.755	6.092	25.847	C.3	1	RES1	0.000	
21	 N11	1.980	3.977	22.590	N.2	1	RES1	0.000	
22	 C35	2.301	4.907	23.566	C.2	1	RES1	0.000	
23	 C36	1.247	5.782	23.697	C.2	1	RES1	0.000	
24	 C37	0.227	5.358	22.766	C.2	1	RES1	0.000	
25	 C38	-1.055	5.784	22.392	C.2	1	RES1	0.000	
26	 C39	-1.796	5.104	21.424	C.2	1	RES1	0.000	
27	 C40	-3.733	6.502	21.780	C.3	1	RES1	0.000	
28	 C41	-1.249	3.965	20.774	C.2	1	RES1	0.000	
29	 C42	-1.969	3.252	19.754	C.2	1	RES1	0.000	
30	 C43	-1.512	3.058	18.465	C.2	1	RES1	0.000	
31	 C44	-0.308	3.451	17.709	C.3	1	RES1	0.000	
32	 C45	-3.216	2.557	19.799	C.2	1	RES1	0.000	
33	 C46	-4.155	2.412	20.919	C.3	1	RES1	0.000	
34	 C47	0.018	3.508	21.135	C.2	1	RES1	0.000	
35	 C48	0.726	4.215	22.113	C.2	1	RES1	0.000	
@<TRIPOS>BOND
1 1 4 1
2 2 4 1
3 2 5 ar
4 2 13 ar
5 3 20 1
6 5 6 ar
7 6 8 1
8 6 12 ar
9 7 13 1
10 7 14 1
11 8 10 1
12 8 11 1
13 9 14 ar
14 10 11 1
15 12 13 ar
16 9 17 ar
17 15 17 ar
18 17 20 1
19 18 32 ar
20 18 19 ar
21 19 30 ar
22 21 22 ar
23 21 35 ar
24 15 22 ar
25 22 23 ar
26 14 23 ar
27 23 24 ar
28 24 25 ar
29 24 35 ar
30 25 26 ar
31 16 26 1
32 26 28 ar
33 16 27 1
34 28 29 1
35 28 34 ar
36 29 30 ar
37 29 32 ar
38 30 31 1
39 32 33 1
40 34 35 ar
@<TRIPOS>SUBSTRUCTURE
1	RES1	1	GROUP	1 ****	RES
