# created with PyMOL 2.5.2
@<TRIPOS>MOLECULE
BRD2_4ALH_TargetProtein
35 40 1                 
SMALL
USER_CHARGES
@<TRIPOS>ATOM
1	  C1	-3.225	6.492	25.346	C.3	1	RES1	0.000	
2	  N1	-1.911	8.334	24.307	N.2	1	RES1	0.000	
3	  O1	4.988	6.989	26.655	O.2	1	RES1	0.000	
4	  C2	-2.612	7.885	25.510	C.3	1	RES1	0.000	
5	  N2	-2.634	8.902	23.303	N.2	1	RES1	0.000	
6	  C3	-1.696	9.210	22.411	C.2	1	RES1	0.000	
7	  N3	0.317	7.728	24.966	N.pl3	1	RES1	0.000	
8	  C4	-1.980	9.879	21.049	C.3	1	RES1	0.000	
9	  N4	2.550	6.884	25.322	N.2	1	RES1	0.000	
10	  C5	-3.268	9.517	20.337	C.3	1	RES1	0.000	
11	  C6	-1.978	9.026	19.816	C.3	1	RES1	0.000	
12	  O6	-3.120	5.463	21.072	O.3	1	RES1	0.000	
13	  C7	-0.392	8.849	22.852	C.2	1	RES1	0.000	
14	  O7	-2.472	2.384	17.751	O.2	1	RES1	0.000	
15	  C8	-0.527	8.272	24.075	C.2	1	RES1	0.000	
16	  C9	1.369	6.815	24.689	C.2	1	RES1	0.000	
17	  N9	3.476	4.988	24.178	N.2	1	RES1	0.000	
18	 C10	3.533	6.002	25.040	C.2	1	RES1	0.000	
19	 N10	-3.520	2.063	18.588	N.2	1	RES1	0.000	
20	 C11	4.783	6.149	25.843	C.2	1	RES1	0.000	
21	 N11	2.006	4.023	22.559	N.2	1	RES1	0.000	
22	 C28	2.285	4.956	23.530	C.2	1	RES1	0.000	
23	 C29	1.228	5.788	23.700	C.2	1	RES1	0.000	
24	 C30	0.223	5.351	22.773	C.2	1	RES1	0.000	
25	 C31	-1.072	5.790	22.417	C.2	1	RES1	0.000	
26	 C32	-1.825	5.101	21.459	C.2	1	RES1	0.000	
27	 C33	-3.792	6.478	21.834	C.3	1	RES1	0.000	
28	 C34	-1.270	3.988	20.798	C.2	1	RES1	0.000	
29	 C35	-1.991	3.278	19.768	C.2	1	RES1	0.000	
30	 C36	-1.530	3.110	18.468	C.2	1	RES1	0.000	
31	 C37	-0.325	3.528	17.718	C.3	1	RES1	0.000	
32	 C38	-3.246	2.598	19.795	C.2	1	RES1	0.000	
33	 C39	-4.221	2.465	20.918	C.3	1	RES1	0.000	
34	 C40	0.056	3.535	21.115	C.2	1	RES1	0.000	
35	 C41	0.749	4.250	22.106	C.2	1	RES1	0.000	
@<TRIPOS>BOND
1 1 4 1
2 2 4 1
3 2 5 ar
4 2 15 ar
5 3 20 2
6 5 6 ar
7 6 8 1
8 6 13 ar
9 7 15 1
10 7 16 1
11 8 10 1
12 8 11 1
13 9 16 ar
14 10 11 1
15 13 15 ar
16 9 18 ar
17 17 18 ar
18 18 20 1
19 14 19 ar
20 19 32 ar
21 21 22 ar
22 21 35 ar
23 17 22 ar
24 22 23 ar
25 16 23 ar
26 23 24 ar
27 24 25 ar
28 24 35 ar
29 25 26 ar
30 12 26 1
31 26 28 ar
32 12 27 1
33 28 29 1
34 28 34 ar
35 29 30 ar
36 29 32 ar
37 14 30 ar
38 30 31 1
39 32 33 1
40 34 35 ar
@<TRIPOS>SUBSTRUCTURE
1	RES1	1	GROUP	1 ****	RES
