# created with PyMOL 2.5.2
@<TRIPOS>MOLECULE
BRD4_6C7R_TargetProtein
35 40 1                 
SMALL
USER_CHARGES
@<TRIPOS>ATOM
1	  C1	-3.050	6.559	25.499	C.3	1	RES1	0.000	
2	  N1	-1.884	8.367	24.341	N.2	1	RES1	0.000	
3	  O1	5.736	5.379	25.780	O.2	1	RES1	0.000	
4	  C2	-2.580	7.990	25.573	C.3	1	RES1	0.000	
5	  N2	-2.612	8.940	23.323	N.2	1	RES1	0.000	
6	  C3	-1.704	9.197	22.383	C.2	1	RES1	0.000	
7	  N3	0.332	7.739	24.946	N.pl3	1	RES1	0.000	
8	  C4	-2.074	9.866	21.069	C.3	1	RES1	0.000	
9	  N4	2.539	6.869	25.363	N.2	1	RES1	0.000	
10	  C5	-3.387	9.506	20.399	C.3	1	RES1	0.000	
11	  C6	-2.117	9.072	19.798	C.3	1	RES1	0.000	
12	  C7	-0.382	8.834	22.783	C.2	1	RES1	0.000	
13	  C8	-0.517	8.306	24.058	C.2	1	RES1	0.000	
14	  C9	1.377	6.799	24.666	C.2	1	RES1	0.000	
15	  N9	3.474	4.954	24.206	N.2	1	RES1	0.000	
16	  O9	-3.071	5.484	21.013	O.3	1	RES1	0.000	
17	 C10	3.540	5.968	25.091	C.2	1	RES1	0.000	
18	 N10	-3.572	2.091	18.601	N.2	1	RES1	0.000	
19	 O10	-2.491	2.381	17.751	O.2	1	RES1	0.000	
20	 C11	4.758	6.123	25.869	C.2	1	RES1	0.000	
21	 N11	2.020	4.004	22.593	N.2	1	RES1	0.000	
22	 C35	2.331	4.936	23.555	C.2	1	RES1	0.000	
23	 C36	1.244	5.766	23.695	C.2	1	RES1	0.000	
24	 C37	0.249	5.351	22.779	C.2	1	RES1	0.000	
25	 C38	-1.045	5.771	22.421	C.2	1	RES1	0.000	
26	 C39	-1.778	5.095	21.409	C.2	1	RES1	0.000	
27	 C40	-3.755	6.464	21.782	C.3	1	RES1	0.000	
28	 C41	-1.226	3.975	20.769	C.2	1	RES1	0.000	
29	 C42	-1.960	3.272	19.758	C.2	1	RES1	0.000	
30	 C43	-1.536	3.077	18.439	C.2	1	RES1	0.000	
31	 C44	-0.313	3.451	17.703	C.3	1	RES1	0.000	
32	 C45	-3.253	2.643	19.775	C.2	1	RES1	0.000	
33	 C46	-4.194	2.539	20.927	C.3	1	RES1	0.000	
34	 C47	0.047	3.542	21.118	C.2	1	RES1	0.000	
35	 C48	0.739	4.218	22.110	C.2	1	RES1	0.000	
@<TRIPOS>BOND
1 1 4 1
2 2 4 1
3 2 5 ar
4 2 13 ar
5 3 20 2
6 5 6 ar
7 6 8 1
8 6 12 ar
9 7 13 1
10 7 14 1
11 8 10 1
12 8 11 1
13 9 14 ar
14 10 11 1
15 12 13 ar
16 9 17 ar
17 15 17 ar
18 17 20 1
19 18 32 ar
20 18 19 ar
21 19 30 ar
22 21 22 ar
23 21 35 ar
24 15 22 ar
25 22 23 ar
26 14 23 ar
27 23 24 ar
28 24 25 ar
29 24 35 ar
30 25 26 ar
31 16 26 1
32 26 28 ar
33 16 27 1
34 28 29 1
35 28 34 ar
36 29 30 ar
37 29 32 ar
38 30 31 1
39 32 33 1
40 34 35 ar
@<TRIPOS>SUBSTRUCTURE
1	RES1	1	GROUP	1 ****	RES
