# created with PyMOL 2.5.2
@<TRIPOS>MOLECULE
BTK_4OTR_TargetProtein
46 52 1                 
SMALL
USER_CHARGES
@<TRIPOS>ATOM
1	  C1	19.782	6.043	3.235	C.3	1	RES1	0.000	
2	  N1	21.080	6.083	2.588	N.2	1	RES1	0.000	
3	  O1	24.784	7.373	8.109	O.3	1	RES1	0.000	
4	  C2	22.184	6.325	3.354	C.2	1	RES1	0.000	
5	  N2	25.639	8.862	6.570	N.2	1	RES1	0.000	
6	  O2	22.411	8.077	5.843	O.3	1	RES1	0.000	
7	  C3	23.418	6.370	2.837	C.2	1	RES1	0.000	
8	  N3	22.596	5.643	-0.779	N.pl3	1	RES1	0.000	
9	  C4	24.554	6.669	3.722	C.2	1	RES1	0.000	
10	  N4	27.030	4.835	-4.227	N.pl3	1	RES1	0.000	
11	  C5	25.696	5.860	3.591	C.2	1	RES1	0.000	
12	  N5	29.207	4.663	-6.163	N.3	1	RES1	0.000	
13	  C6	26.795	6.108	4.426	C.2	1	RES1	0.000	
14	  C7	26.769	7.091	5.387	C.2	1	RES1	0.000	
15	  C8	25.634	7.889	5.528	C.2	1	RES1	0.000	
16	  C9	26.122	10.137	6.309	C.2	1	RES1	0.000	
17	 C10	26.182	11.120	7.218	C.2	1	RES1	0.000	
18	 N10	24.967	5.483	-1.148	N.2	1	RES1	0.000	
19	 O10	20.191	5.622	0.486	O.2	1	RES1	0.000	
20	 C11	25.725	10.825	8.577	C.2	1	RES1	0.000	
21	 C12	25.780	11.817	9.573	C.2	1	RES1	0.000	
22	 C13	25.333	11.583	10.880	C.2	1	RES1	0.000	
23	 C14	25.455	12.642	11.938	C.3	1	RES1	0.000	
24	 C15	24.308	12.980	12.856	C.3	1	RES1	0.000	
25	 C16	24.697	13.948	11.798	C.3	1	RES1	0.000	
26	 C17	24.901	10.303	11.174	C.2	1	RES1	0.000	
27	 C18	24.842	9.303	10.203	C.2	1	RES1	0.000	
28	 C19	25.267	9.563	8.886	C.2	1	RES1	0.000	
29	 C20	25.190	8.518	7.859	C.2	1	RES1	0.000	
30	 C21	24.502	7.711	4.703	C.2	1	RES1	0.000	
31	 C22	23.289	8.578	4.836	C.3	1	RES1	0.000	
32	 C23	23.584	6.160	1.409	C.2	1	RES1	0.000	
33	 C24	22.540	5.865	0.579	C.2	1	RES1	0.000	
34	 C25	23.716	5.431	-1.618	C.2	1	RES1	0.000	
35	 C26	23.491	5.178	-2.982	C.2	1	RES1	0.000	
36	 C27	24.578	5.024	-3.834	C.2	1	RES1	0.000	
37	 C28	25.894	5.040	-3.365	C.2	1	RES1	0.000	
38	 C29	26.950	3.940	-5.398	C.3	1	RES1	0.000	
39	 C30	28.294	3.516	-5.922	C.3	1	RES1	0.000	
40	 C31	30.529	4.235	-6.688	C.3	1	RES1	0.000	
41	 C32	31.657	4.393	-5.669	C.3	1	RES1	0.000	
42	 C52	29.369	5.399	-4.886	C.3	1	RES1	0.000	
43	 C53	28.034	5.923	-4.325	C.3	1	RES1	0.000	
44	 C54	25.996	5.262	-2.010	C.2	1	RES1	0.000	
45	 C55	21.158	5.855	1.220	C.2	1	RES1	0.000	
46	  F1	24.364	8.078	10.558	 F	1	RES1	0.000	
@<TRIPOS>BOND
1 1 2 1
2 2 4 ar
3 2 45 ar
4 3 29 1
5 4 7 ar
6 5 15 1
7 5 16 ar
8 5 29 ar
9 6 31 1
10 7 9 1
11 9 11 ar
12 10 43 1
13 11 13 ar
14 12 42 1
15 13 14 ar
16 14 15 ar
17 16 17 ar
18 17 20 ar
19 18 34 ar
20 18 44 ar
21 19 45 2
22 20 21 ar
23 20 28 ar
24 21 22 ar
25 22 23 1
26 22 26 ar
27 23 24 1
28 23 25 1
29 24 25 1
30 26 27 ar
31 27 28 ar
32 28 29 ar
33 9 30 ar
34 15 30 ar
35 30 31 1
36 7 32 ar
37 32 33 ar
38 8 33 1
39 33 45 ar
40 8 34 1
41 34 35 ar
42 35 36 ar
43 36 37 ar
44 10 37 1
45 37 44 ar
46 10 38 1
47 38 39 1
48 12 39 1
49 12 40 1
50 40 41 1
51 42 43 1
52 27 46 1
@<TRIPOS>SUBSTRUCTURE
1	RES1	1	GROUP	1 ****	RES
