# created with PyMOL 2.5.2
@<TRIPOS>MOLECULE
PARP1_4RV6_TargetProtein
24 27 1                 
SMALL
USER_CHARGES
@<TRIPOS>ATOM
1	  C1	85.595	-3.897	122.441	C.3	1	RES1	0.000	
2	  N1	86.711	-3.016	122.200	N.3	1	RES1	0.000	
3	  O6	95.566	4.211	121.852	O.2	1	RES1	0.000	
4	  N8	94.656	2.249	122.521	N.pl3	1	RES1	0.000	
5	  N9	91.311	1.763	118.699	N.2	1	RES1	0.000	
6	 C25	86.684	-2.444	120.839	C.3	1	RES1	0.000	
7	 C26	87.825	-1.494	120.610	C.2	1	RES1	0.000	
8	 C27	88.033	-0.925	119.350	C.2	1	RES1	0.000	
9	 C28	89.090	-0.045	119.151	C.2	1	RES1	0.000	
10	 C29	89.942	0.305	120.173	C.2	1	RES1	0.000	
11	 C30	91.118	1.173	119.939	C.2	1	RES1	0.000	
12	 C31	92.209	1.576	120.731	C.2	1	RES1	0.000	
13	 C32	92.478	1.105	122.104	C.3	1	RES1	0.000	
14	 C33	93.990	0.961	122.373	C.3	1	RES1	0.000	
15	 C34	94.850	3.227	121.584	C.2	1	RES1	0.000	
16	 C35	94.192	3.201	120.246	C.2	1	RES1	0.000	
17	 C36	93.040	2.456	119.958	C.2	1	RES1	0.000	
18	 C37	92.434	2.530	118.690	C.2	1	RES1	0.000	
19	 C38	92.972	3.310	117.670	C.2	1	RES1	0.000	
20	 C39	94.136	4.012	117.937	C.2	1	RES1	0.000	
21	 C40	94.721	3.994	119.212	C.2	1	RES1	0.000	
22	 C41	89.747	-0.279	121.434	C.2	1	RES1	0.000	
23	 C42	88.714	-1.161	121.660	C.2	1	RES1	0.000	
24	  F1	94.656	4.781	116.994	 F	1	RES1	0.000	
@<TRIPOS>BOND
1 1 2 1
2 2 6 1
3 6 7 1
4 7 8 ar
5 7 23 ar
6 8 9 ar
7 9 10 ar
8 10 11 1
9 10 22 ar
10 5 11 ar
11 11 12 ar
12 12 13 1
13 12 17 ar
14 13 14 1
15 4 14 1
16 3 15 2
17 4 15 1
18 15 16 1
19 16 17 ar
20 16 21 ar
21 17 18 ar
22 5 18 ar
23 18 19 ar
24 19 20 ar
25 20 21 ar
26 22 23 ar
27 20 24 1
@<TRIPOS>SUBSTRUCTURE
1	RES1	1	GROUP	1 ****	RES
