# created with PyMOL 2.5.2
@<TRIPOS>MOLECULE
PARP1_4RV6_TargetProtein
24 27 1                 
SMALL
USER_CHARGES
@<TRIPOS>ATOM
1	  C1	85.569	-3.896	122.426	C.3	1	RES1	0.000	
2	  N1	86.687	-3.010	122.203	N.3	1	RES1	0.000	
3	  O7	95.552	4.214	121.848	O.2	1	RES1	0.000	
4	  N8	94.656	2.246	122.526	N.pl3	1	RES1	0.000	
5	  N9	91.334	1.732	118.697	N.2	1	RES1	0.000	
6	 C27	86.669	-2.445	120.850	C.3	1	RES1	0.000	
7	 C28	87.806	-1.490	120.625	C.2	1	RES1	0.000	
8	 C29	88.025	-0.921	119.366	C.2	1	RES1	0.000	
9	 C30	89.095	-0.050	119.131	C.2	1	RES1	0.000	
10	 C31	89.972	0.304	120.196	C.2	1	RES1	0.000	
11	 C32	91.127	1.165	119.923	C.2	1	RES1	0.000	
12	 C33	92.204	1.547	120.730	C.2	1	RES1	0.000	
13	 C34	92.512	1.113	122.105	C.3	1	RES1	0.000	
14	 C35	94.012	0.966	122.352	C.3	1	RES1	0.000	
15	 C36	94.836	3.267	121.587	C.2	1	RES1	0.000	
16	 C37	94.187	3.203	120.229	C.2	1	RES1	0.000	
17	 C38	93.005	2.454	119.978	C.2	1	RES1	0.000	
18	 C39	92.459	2.542	118.706	C.2	1	RES1	0.000	
19	 C40	92.962	3.306	117.671	C.2	1	RES1	0.000	
20	 C41	94.129	4.016	117.957	C.2	1	RES1	0.000	
21	 C42	94.724	3.993	119.191	C.2	1	RES1	0.000	
22	 C43	89.772	-0.293	121.442	C.2	1	RES1	0.000	
23	 C44	88.710	-1.167	121.633	C.2	1	RES1	0.000	
24	  F1	94.668	4.798	116.993	 F	1	RES1	0.000	
@<TRIPOS>BOND
1 1 2 1
2 2 6 1
3 6 7 1
4 7 8 ar
5 7 23 ar
6 8 9 ar
7 9 10 ar
8 10 11 1
9 10 22 ar
10 5 11 ar
11 11 12 ar
12 12 13 1
13 12 17 ar
14 13 14 1
15 4 14 1
16 3 15 2
17 4 15 1
18 15 16 1
19 16 17 ar
20 16 21 ar
21 17 18 ar
22 5 18 ar
23 18 19 ar
24 19 20 ar
25 20 21 ar
26 22 23 ar
27 20 24 1
@<TRIPOS>SUBSTRUCTURE
1	RES1	1	GROUP	1 ****	RES
