# created with PyMOL 2.5.2
@<TRIPOS>MOLECULE
PARP1_4RV6_TargetProtein
24 27 1                 
SMALL
USER_CHARGES
@<TRIPOS>ATOM
1	  C1	85.518	-3.829	122.445	C.3	1	RES1	0.000	
2	  N1	86.688	-2.973	122.213	N.3	1	RES1	0.000	
3	  N8	94.542	2.431	122.596	N.pl3	1	RES1	0.000	
4	  O8	96.247	3.222	121.373	O.2	1	RES1	0.000	
5	  N9	91.280	1.817	118.767	N.2	1	RES1	0.000	
6	 C29	86.706	-2.486	120.824	C.3	1	RES1	0.000	
7	 C30	87.874	-1.581	120.585	C.2	1	RES1	0.000	
8	 C31	88.149	-1.085	119.303	C.2	1	RES1	0.000	
9	 C32	89.230	-0.194	119.079	C.2	1	RES1	0.000	
10	 C33	90.087	0.145	120.113	C.2	1	RES1	0.000	
11	 C34	91.193	1.092	119.897	C.2	1	RES1	0.000	
12	 C35	92.238	1.492	120.679	C.2	1	RES1	0.000	
13	 C36	92.526	1.060	122.089	C.3	1	RES1	0.000	
14	 C37	93.142	2.167	122.929	C.3	1	RES1	0.000	
15	 C38	95.084	2.935	121.428	C.2	1	RES1	0.000	
16	 C39	94.240	3.139	120.203	C.2	1	RES1	0.000	
17	 C40	93.016	2.418	119.952	C.2	1	RES1	0.000	
18	 C41	92.394	2.628	118.747	C.2	1	RES1	0.000	
19	 C42	92.823	3.499	117.755	C.2	1	RES1	0.000	
20	 C43	93.998	4.180	118.049	C.2	1	RES1	0.000	
21	 C44	94.702	4.015	119.204	C.2	1	RES1	0.000	
22	 C45	89.796	-0.341	121.404	C.2	1	RES1	0.000	
23	 C46	88.719	-1.187	121.618	C.2	1	RES1	0.000	
24	  F1	94.483	5.032	117.115	 F	1	RES1	0.000	
@<TRIPOS>BOND
1 1 2 1
2 2 6 1
3 6 7 1
4 7 8 ar
5 7 23 ar
6 8 9 ar
7 9 10 ar
8 10 11 1
9 10 22 ar
10 5 11 ar
11 11 12 ar
12 12 13 1
13 12 17 ar
14 13 14 1
15 3 14 1
16 3 15 1
17 4 15 2
18 15 16 1
19 16 17 ar
20 16 21 ar
21 17 18 ar
22 5 18 ar
23 18 19 ar
24 19 20 ar
25 20 21 ar
26 22 23 ar
27 20 24 1
@<TRIPOS>SUBSTRUCTURE
1	RES1	1	GROUP	1 ****	RES
