# created with PyMOL 2.5.2
@<TRIPOS>MOLECULE
PARP1_4RV6_TargetProtein
24 27 1                 
SMALL
USER_CHARGES
@<TRIPOS>ATOM
1	  C1	85.530	-3.847	122.431	C.3	1	RES1	0.000	
2	  N1	86.687	-3.025	122.207	N.3	1	RES1	0.000	
3	  N8	94.521	2.453	122.615	N.pl3	1	RES1	0.000	
4	  N9	91.257	1.824	118.724	N.2	1	RES1	0.000	
5	  O9	96.252	3.231	121.377	O.2	1	RES1	0.000	
6	 C31	86.687	-2.470	120.838	C.3	1	RES1	0.000	
7	 C32	87.879	-1.571	120.594	C.2	1	RES1	0.000	
8	 C33	88.129	-1.019	119.314	C.2	1	RES1	0.000	
9	 C34	89.193	-0.201	119.092	C.2	1	RES1	0.000	
10	 C35	90.089	0.165	120.117	C.2	1	RES1	0.000	
11	 C36	91.182	1.081	119.907	C.2	1	RES1	0.000	
12	 C37	92.238	1.477	120.685	C.2	1	RES1	0.000	
13	 C38	92.516	1.066	122.080	C.3	1	RES1	0.000	
14	 C39	93.141	2.192	122.894	C.3	1	RES1	0.000	
15	 C40	95.083	2.946	121.443	C.2	1	RES1	0.000	
16	 C41	94.233	3.124	120.191	C.2	1	RES1	0.000	
17	 C42	93.026	2.436	119.969	C.2	1	RES1	0.000	
18	 C43	92.370	2.601	118.744	C.2	1	RES1	0.000	
19	 C44	92.839	3.509	117.770	C.2	1	RES1	0.000	
20	 C45	94.016	4.165	118.045	C.2	1	RES1	0.000	
21	 C46	94.725	3.999	119.223	C.2	1	RES1	0.000	
22	 C47	89.834	-0.366	121.389	C.2	1	RES1	0.000	
23	 C48	88.740	-1.195	121.629	C.2	1	RES1	0.000	
24	  F1	94.506	5.021	117.088	 F	1	RES1	0.000	
@<TRIPOS>BOND
1 1 2 1
2 2 6 1
3 6 7 1
4 7 8 ar
5 7 23 ar
6 8 9 ar
7 9 10 ar
8 10 11 1
9 10 22 ar
10 4 11 ar
11 11 12 ar
12 12 13 1
13 12 17 ar
14 13 14 1
15 3 14 1
16 3 15 1
17 5 15 2
18 15 16 1
19 16 17 ar
20 16 21 ar
21 17 18 ar
22 4 18 ar
23 18 19 ar
24 19 20 ar
25 20 21 ar
26 22 23 ar
27 20 24 1
@<TRIPOS>SUBSTRUCTURE
1	RES1	1	GROUP	1 ****	RES
