# created with PyMOL 2.5.2
@<TRIPOS>MOLECULE
PARP1_4RV6_TargetProtein
24 27 1                 
SMALL
USER_CHARGES
@<TRIPOS>ATOM
1	  C1	85.578	-3.835	122.476	C.3	1	RES1	0.000	
2	  N1	86.715	-2.976	122.222	N.3	1	RES1	0.000	
3	  N8	94.531	2.447	122.600	N.pl3	1	RES1	0.000	
4	  N9	91.266	1.835	118.760	N.2	1	RES1	0.000	
5	 O10	96.270	3.211	121.397	O.2	1	RES1	0.000	
6	 C33	86.697	-2.488	120.826	C.3	1	RES1	0.000	
7	 C34	87.864	-1.559	120.574	C.2	1	RES1	0.000	
8	 C35	88.703	-1.198	121.602	C.2	1	RES1	0.000	
9	 C36	89.780	-0.343	121.385	C.2	1	RES1	0.000	
10	 C37	90.072	0.147	120.121	C.2	1	RES1	0.000	
11	 C38	91.190	1.096	119.893	C.2	1	RES1	0.000	
12	 C39	92.242	1.477	120.720	C.2	1	RES1	0.000	
13	 C40	92.524	1.048	122.081	C.3	1	RES1	0.000	
14	 C41	93.144	2.195	122.910	C.3	1	RES1	0.000	
15	 C42	95.070	2.933	121.428	C.2	1	RES1	0.000	
16	 C43	94.233	3.135	120.185	C.2	1	RES1	0.000	
17	 C44	93.024	2.426	119.959	C.2	1	RES1	0.000	
18	 C45	92.361	2.620	118.747	C.2	1	RES1	0.000	
19	 C46	92.834	3.498	117.777	C.2	1	RES1	0.000	
20	 C47	94.014	4.175	118.025	C.2	1	RES1	0.000	
21	 C48	94.709	4.006	119.213	C.2	1	RES1	0.000	
22	 C49	89.217	-0.202	119.058	C.2	1	RES1	0.000	
23	 C50	88.128	-1.069	119.283	C.2	1	RES1	0.000	
24	  F1	94.506	5.016	117.125	 F	1	RES1	0.000	
@<TRIPOS>BOND
1 1 2 1
2 2 6 1
3 5 15 2
4 6 7 1
5 7 8 ar
6 7 23 ar
7 8 9 ar
8 9 10 ar
9 10 11 1
10 10 22 ar
11 4 11 ar
12 11 12 ar
13 12 13 1
14 12 17 ar
15 13 14 1
16 3 14 1
17 3 15 1
18 15 16 1
19 16 17 ar
20 16 21 ar
21 17 18 ar
22 4 18 ar
23 18 19 ar
24 19 20 ar
25 20 21 ar
26 22 23 ar
27 20 24 1
@<TRIPOS>SUBSTRUCTURE
1	RES1	1	GROUP	1 ****	RES
