# created with PyMOL 2.5.2
@<TRIPOS>MOLECULE
PARP1_4RV6_TargetProtein
24 27 1                 
SMALL
USER_CHARGES
@<TRIPOS>ATOM
1	  C1	85.474	-4.776	122.632	C.3	1	RES1	0.000	
2	  N1	86.607	-3.869	122.399	N.3	1	RES1	0.000	
3	  N6	94.183	1.949	122.848	N.pl3	1	RES1	0.000	
4	  N7	91.032	1.044	118.927	N.2	1	RES1	0.000	
5	  O9	95.913	2.763	121.654	O.2	1	RES1	0.000	
6	 C28	86.608	-3.393	121.010	C.3	1	RES1	0.000	
7	 C29	87.768	-2.417	120.781	C.2	1	RES1	0.000	
8	 C30	88.578	-2.020	121.835	C.2	1	RES1	0.000	
9	 C31	89.624	-1.116	121.615	C.2	1	RES1	0.000	
10	 C32	89.910	-0.651	120.311	C.2	1	RES1	0.000	
11	 C33	90.981	0.339	120.110	C.2	1	RES1	0.000	
12	 C34	91.991	0.814	120.906	C.2	1	RES1	0.000	
13	 C35	92.265	0.432	122.320	C.3	1	RES1	0.000	
14	 C36	92.784	1.603	123.141	C.3	1	RES1	0.000	
15	 C37	94.715	2.400	121.689	C.2	1	RES1	0.000	
16	 C38	93.907	2.518	120.415	C.2	1	RES1	0.000	
17	 C39	92.761	1.773	120.171	C.2	1	RES1	0.000	
18	 C40	92.101	1.891	118.924	C.2	1	RES1	0.000	
19	 C41	92.563	2.755	117.961	C.2	1	RES1	0.000	
20	 C42	93.699	3.524	118.206	C.2	1	RES1	0.000	
21	 C43	94.371	3.406	119.420	C.2	1	RES1	0.000	
22	 C44	89.070	-1.015	119.261	C.2	1	RES1	0.000	
23	 C45	87.999	-1.912	119.480	C.2	1	RES1	0.000	
24	  F1	94.177	4.345	117.294	 F	1	RES1	0.000	
@<TRIPOS>BOND
1 1 2 1
2 2 6 1
3 6 7 1
4 7 8 ar
5 7 23 ar
6 8 9 ar
7 9 10 ar
8 10 11 1
9 10 22 ar
10 4 11 ar
11 11 12 ar
12 12 13 1
13 12 17 ar
14 13 14 1
15 3 14 1
16 3 15 1
17 5 15 2
18 15 16 1
19 16 17 ar
20 16 21 ar
21 17 18 ar
22 4 18 ar
23 18 19 ar
24 19 20 ar
25 20 21 ar
26 22 23 ar
27 20 24 1
@<TRIPOS>SUBSTRUCTURE
1	RES1	1	GROUP	1 ****	RES
