# created with PyMOL 2.5.2
@<TRIPOS>MOLECULE
PARP1_4RV6_TargetProtein
24 27 1                 
SMALL
USER_CHARGES
@<TRIPOS>ATOM
1	  C1	85.550	-3.864	122.441	C.3	1	RES1	0.000	
2	  N1	86.699	-2.991	122.205	N.3	1	RES1	0.000	
3	  N6	94.538	2.444	122.593	N.pl3	1	RES1	0.000	
4	  N7	91.256	1.835	118.749	N.2	1	RES1	0.000	
5	  O9	96.255	3.225	121.375	O.2	1	RES1	0.000	
6	 C29	86.705	-2.482	120.819	C.3	1	RES1	0.000	
7	 C30	87.857	-1.547	120.573	C.2	1	RES1	0.000	
8	 C31	88.115	-1.035	119.322	C.2	1	RES1	0.000	
9	 C32	89.185	-0.197	119.095	C.2	1	RES1	0.000	
10	 C33	90.070	0.158	120.108	C.2	1	RES1	0.000	
11	 C34	91.174	1.093	119.893	C.2	1	RES1	0.000	
12	 C35	92.238	1.480	120.707	C.2	1	RES1	0.000	
13	 C36	92.526	1.064	122.102	C.3	1	RES1	0.000	
14	 C37	93.151	2.195	122.933	C.3	1	RES1	0.000	
15	 C38	95.077	2.945	121.444	C.2	1	RES1	0.000	
16	 C39	94.226	3.109	120.204	C.2	1	RES1	0.000	
17	 C40	93.054	2.409	119.939	C.2	1	RES1	0.000	
18	 C41	92.382	2.617	118.757	C.2	1	RES1	0.000	
19	 C42	92.807	3.499	117.761	C.2	1	RES1	0.000	
20	 C43	94.050	4.182	118.026	C.2	1	RES1	0.000	
21	 C44	94.723	4.002	119.207	C.2	1	RES1	0.000	
22	 C45	89.811	-0.360	121.400	C.2	1	RES1	0.000	
23	 C46	88.736	-1.211	121.620	C.2	1	RES1	0.000	
24	  F1	94.495	5.024	117.107	 F	1	RES1	0.000	
@<TRIPOS>BOND
1 1 2 1
2 2 6 1
3 6 7 1
4 7 8 ar
5 7 23 ar
6 8 9 ar
7 9 10 ar
8 10 11 1
9 10 22 ar
10 4 11 ar
11 11 12 ar
12 12 13 1
13 12 17 ar
14 13 14 1
15 3 14 1
16 3 15 1
17 5 15 2
18 15 16 1
19 16 17 ar
20 16 21 ar
21 17 18 ar
22 4 18 ar
23 18 19 ar
24 19 20 ar
25 20 21 ar
26 22 23 ar
27 20 24 1
@<TRIPOS>SUBSTRUCTURE
1	RES1	1	GROUP	1 ****	RES
