# created with PyMOL 2.5.2
@<TRIPOS>MOLECULE
PARP1_4RV6_TargetProtein
24 27 1                 
SMALL
USER_CHARGES
@<TRIPOS>ATOM
1	  C1	85.497	-3.838	122.383	C.3	1	RES1	0.000	
2	  N1	86.667	-2.997	122.186	N.3	1	RES1	0.000	
3	  O1	96.275	3.238	121.358	O.2	1	RES1	0.000	
4	  C2	86.676	-2.480	120.795	C.3	1	RES1	0.000	
5	  N2	94.552	2.483	122.591	N.pl3	1	RES1	0.000	
6	  C3	87.857	-1.575	120.570	C.2	1	RES1	0.000	
7	  N3	91.263	1.826	118.783	N.2	1	RES1	0.000	
8	  C4	88.137	-1.049	119.310	C.2	1	RES1	0.000	
9	  C5	89.220	-0.205	119.097	C.2	1	RES1	0.000	
10	  C6	90.100	0.118	120.133	C.2	1	RES1	0.000	
11	  C7	91.186	1.091	119.928	C.2	1	RES1	0.000	
12	  C8	92.263	1.490	120.717	C.2	1	RES1	0.000	
13	  C9	92.584	1.071	122.134	C.3	1	RES1	0.000	
14	 C10	93.173	2.199	122.925	C.3	1	RES1	0.000	
15	 C11	95.108	2.952	121.414	C.2	1	RES1	0.000	
16	 C12	94.246	3.130	120.197	C.2	1	RES1	0.000	
17	 C13	94.699	4.011	119.207	C.2	1	RES1	0.000	
18	 C14	93.991	4.170	118.017	C.2	1	RES1	0.000	
19	 C15	92.805	3.494	117.771	C.2	1	RES1	0.000	
20	 C16	92.381	2.614	118.759	C.2	1	RES1	0.000	
21	 C17	93.030	2.426	119.948	C.2	1	RES1	0.000	
22	 C46	89.794	-0.372	121.428	C.2	1	RES1	0.000	
23	 C47	88.704	-1.209	121.630	C.2	1	RES1	0.000	
24	  F1	94.466	5.006	117.084	 F	1	RES1	0.000	
@<TRIPOS>BOND
1 1 2 1
2 2 4 1
3 3 15 2
4 4 6 1
5 6 8 ar
6 6 23 ar
7 7 11 ar
8 8 9 ar
9 9 10 ar
10 10 11 1
11 11 12 ar
12 12 13 1
13 5 14 1
14 13 14 1
15 5 15 1
16 15 16 1
17 16 17 ar
18 16 21 ar
19 17 18 ar
20 18 19 ar
21 19 20 ar
22 7 20 ar
23 20 21 ar
24 12 21 ar
25 10 22 ar
26 22 23 ar
27 18 24 1
@<TRIPOS>SUBSTRUCTURE
1	RES1	1	GROUP	1 ****	RES
