# created with PyMOL 2.5.2
@<TRIPOS>MOLECULE
BRD4_6C7R_TargetProtein
35 40 1                 
SMALL
USER_CHARGES
@<TRIPOS>ATOM
1	  C1	-2.993	6.625	25.462	C.3	1	RES1	0.000	
2	  N1	-1.840	8.459	24.241	N.2	1	RES1	0.000	
3	  O1	5.694	5.330	25.824	O.2	1	RES1	0.000	
4	  C2	-2.557	8.084	25.451	C.3	1	RES1	0.000	
5	  N2	-2.553	8.996	23.245	N.2	1	RES1	0.000	
6	  C3	-1.623	9.235	22.284	C.2	1	RES1	0.000	
7	  N3	0.363	7.754	24.843	N.pl3	1	RES1	0.000	
8	  C4	-1.890	9.860	20.924	C.3	1	RES1	0.000	
9	  N4	2.552	6.853	25.292	N.2	1	RES1	0.000	
10	  C5	-2.977	10.925	20.836	C.3	1	RES1	0.000	
11	  C6	-3.247	9.587	20.266	C.3	1	RES1	0.000	
12	  O6	-3.059	5.382	20.952	O.3	1	RES1	0.000	
13	  C7	-0.339	8.848	22.691	C.2	1	RES1	0.000	
14	  O7	-2.374	2.177	17.790	O.2	1	RES1	0.000	
15	  C8	-0.500	8.307	23.947	C.2	1	RES1	0.000	
16	  C9	1.384	6.787	24.614	C.2	1	RES1	0.000	
17	  N9	3.456	4.882	24.225	N.2	1	RES1	0.000	
18	 C10	3.521	5.920	25.077	C.2	1	RES1	0.000	
19	 N10	-3.490	1.936	18.591	N.2	1	RES1	0.000	
20	 C11	4.727	6.096	25.885	C.2	1	RES1	0.000	
21	 N11	1.986	3.910	22.641	N.2	1	RES1	0.000	
22	 C28	2.276	4.844	23.559	C.2	1	RES1	0.000	
23	 C29	1.237	5.736	23.689	C.2	1	RES1	0.000	
24	 C30	0.237	5.288	22.752	C.2	1	RES1	0.000	
25	 C31	-1.037	5.718	22.347	C.2	1	RES1	0.000	
26	 C32	-1.769	5.016	21.375	C.2	1	RES1	0.000	
27	 C33	-3.742	6.429	21.719	C.3	1	RES1	0.000	
28	 C34	-1.227	3.859	20.811	C.2	1	RES1	0.000	
29	 C35	-1.966	3.120	19.765	C.2	1	RES1	0.000	
30	 C36	-1.462	2.896	18.509	C.2	1	RES1	0.000	
31	 C37	-0.201	3.244	17.777	C.3	1	RES1	0.000	
32	 C38	-3.233	2.505	19.792	C.2	1	RES1	0.000	
33	 C39	-4.237	2.393	20.868	C.3	1	RES1	0.000	
34	 C40	0.039	3.413	21.178	C.2	1	RES1	0.000	
35	 C41	0.742	4.132	22.136	C.2	1	RES1	0.000	
@<TRIPOS>BOND
1 1 4 1
2 2 4 1
3 2 5 ar
4 2 15 ar
5 3 20 2
6 5 6 ar
7 6 8 1
8 6 13 ar
9 7 15 1
10 7 16 1
11 8 10 1
12 8 11 1
13 9 16 ar
14 10 11 1
15 13 15 ar
16 9 18 ar
17 17 18 ar
18 18 20 1
19 14 19 ar
20 19 32 ar
21 21 22 ar
22 21 35 ar
23 17 22 ar
24 22 23 ar
25 16 23 ar
26 23 24 ar
27 24 25 ar
28 24 35 ar
29 25 26 ar
30 12 26 1
31 26 28 ar
32 12 27 1
33 28 29 1
34 28 34 ar
35 29 30 ar
36 29 32 ar
37 14 30 ar
38 30 31 1
39 32 33 1
40 34 35 ar
@<TRIPOS>SUBSTRUCTURE
1	RES1	1	GROUP	1 ****	RES
