# created with PyMOL 2.5.2
@<TRIPOS>MOLECULE
PARP1_4RV6_TargetProtein
24 27 1                 
SMALL
USER_CHARGES
@<TRIPOS>ATOM
1	  C1	85.514	-3.872	122.407	C.3	1	RES1	0.000	
2	  N1	86.677	-3.002	122.203	N.3	1	RES1	0.000	
3	  O1	96.283	3.217	121.361	O.2	1	RES1	0.000	
4	  C2	86.708	-2.500	120.822	C.3	1	RES1	0.000	
5	  N2	94.549	2.439	122.617	N.pl3	1	RES1	0.000	
6	  C3	87.880	-1.563	120.594	C.2	1	RES1	0.000	
7	  N3	91.278	1.839	118.760	N.2	1	RES1	0.000	
8	  C4	88.140	-1.055	119.287	C.2	1	RES1	0.000	
9	  C5	89.205	-0.206	119.064	C.2	1	RES1	0.000	
10	  C6	90.093	0.147	120.132	C.2	1	RES1	0.000	
11	  C7	91.182	1.084	119.908	C.2	1	RES1	0.000	
12	  C8	92.246	1.489	120.706	C.2	1	RES1	0.000	
13	  C9	92.546	1.076	122.101	C.3	1	RES1	0.000	
14	 C10	93.140	2.184	122.930	C.3	1	RES1	0.000	
15	 C11	95.073	2.932	121.407	C.2	1	RES1	0.000	
16	 C12	94.231	3.120	120.197	C.2	1	RES1	0.000	
17	 C13	94.719	4.003	119.206	C.2	1	RES1	0.000	
18	 C14	93.994	4.173	118.033	C.2	1	RES1	0.000	
19	 C15	92.828	3.478	117.765	C.2	1	RES1	0.000	
20	 C16	92.383	2.642	118.757	C.2	1	RES1	0.000	
21	 C17	93.022	2.429	119.953	C.2	1	RES1	0.000	
22	 C48	89.799	-0.330	121.409	C.2	1	RES1	0.000	
23	 C49	88.719	-1.152	121.644	C.2	1	RES1	0.000	
24	  F1	94.464	5.021	117.100	 F	1	RES1	0.000	
@<TRIPOS>BOND
1 1 2 1
2 2 4 1
3 3 15 2
4 4 6 1
5 6 8 ar
6 6 23 ar
7 7 11 ar
8 8 9 ar
9 9 10 ar
10 10 11 1
11 11 12 ar
12 12 13 1
13 5 14 1
14 13 14 1
15 5 15 1
16 15 16 1
17 16 17 ar
18 16 21 ar
19 17 18 ar
20 18 19 ar
21 19 20 ar
22 7 20 ar
23 20 21 ar
24 12 21 ar
25 10 22 ar
26 22 23 ar
27 18 24 1
@<TRIPOS>SUBSTRUCTURE
1	RES1	1	GROUP	1 ****	RES
