# created with PyMOL 2.5.2
@<TRIPOS>MOLECULE
PARP1_4RV6_TargetProtein
24 27 1                 
SMALL
USER_CHARGES
@<TRIPOS>ATOM
1	  C1	85.533	-3.815	122.485	C.3	1	RES1	0.000	
2	  N1	86.667	-2.917	122.247	N.3	1	RES1	0.000	
3	  N5	94.667	2.220	122.506	N.pl3	1	RES1	0.000	
4	  N6	91.337	1.773	118.696	N.2	1	RES1	0.000	
5	  O9	95.546	4.192	121.878	O.2	1	RES1	0.000	
6	 C25	86.687	-2.477	120.857	C.3	1	RES1	0.000	
7	 C26	87.847	-1.512	120.619	C.2	1	RES1	0.000	
8	 C27	88.647	-1.078	121.653	C.2	1	RES1	0.000	
9	 C28	89.717	-0.208	121.435	C.2	1	RES1	0.000	
10	 C29	89.990	0.282	120.157	C.2	1	RES1	0.000	
11	 C30	91.109	1.159	119.901	C.2	1	RES1	0.000	
12	 C31	92.202	1.537	120.687	C.2	1	RES1	0.000	
13	 C32	92.503	1.054	122.082	C.3	1	RES1	0.000	
14	 C33	94.006	0.924	122.316	C.3	1	RES1	0.000	
15	 C34	94.845	3.238	121.597	C.2	1	RES1	0.000	
16	 C35	94.183	3.203	120.245	C.2	1	RES1	0.000	
17	 C36	93.022	2.449	119.978	C.2	1	RES1	0.000	
18	 C37	92.416	2.555	118.692	C.2	1	RES1	0.000	
19	 C38	92.962	3.370	117.679	C.2	1	RES1	0.000	
20	 C39	94.099	4.065	117.972	C.2	1	RES1	0.000	
21	 C40	94.710	4.004	119.222	C.2	1	RES1	0.000	
22	 C41	89.205	-0.192	119.108	C.2	1	RES1	0.000	
23	 C42	88.142	-1.076	119.327	C.2	1	RES1	0.000	
24	  F1	94.630	4.843	117.025	 F	1	RES1	0.000	
@<TRIPOS>BOND
1 1 2 1
2 2 6 1
3 6 7 1
4 7 8 ar
5 7 23 ar
6 8 9 ar
7 9 10 ar
8 10 11 1
9 10 22 ar
10 4 11 ar
11 11 12 ar
12 12 13 1
13 12 17 ar
14 13 14 1
15 3 14 1
16 3 15 1
17 5 15 2
18 15 16 1
19 16 17 ar
20 16 21 ar
21 17 18 ar
22 4 18 ar
23 18 19 ar
24 19 20 ar
25 20 21 ar
26 22 23 ar
27 20 24 1
@<TRIPOS>SUBSTRUCTURE
1	RES1	1	GROUP	1 ****	RES
