# created with PyMOL 2.5.2
@<TRIPOS>MOLECULE
PARP1_4RV6_TargetProtein
24 27 1                 
SMALL
USER_CHARGES
@<TRIPOS>ATOM
1	  C1	85.560	-3.871	122.469	C.3	1	RES1	0.000	
2	  N1	86.691	-2.978	122.232	N.3	1	RES1	0.000	
3	  N5	94.652	2.232	122.511	N.pl3	1	RES1	0.000	
4	  N6	91.345	1.737	118.683	N.2	1	RES1	0.000	
5	 O10	95.543	4.193	121.867	O.2	1	RES1	0.000	
6	 C27	86.693	-2.444	120.851	C.3	1	RES1	0.000	
7	 C28	87.822	-1.507	120.631	C.2	1	RES1	0.000	
8	 C29	88.063	-0.967	119.336	C.2	1	RES1	0.000	
9	 C30	89.124	-0.089	119.117	C.2	1	RES1	0.000	
10	 C31	89.985	0.282	120.165	C.2	1	RES1	0.000	
11	 C32	91.124	1.164	119.901	C.2	1	RES1	0.000	
12	 C33	92.195	1.573	120.715	C.2	1	RES1	0.000	
13	 C34	92.496	1.091	122.097	C.3	1	RES1	0.000	
14	 C35	94.001	0.940	122.338	C.3	1	RES1	0.000	
15	 C36	94.823	3.245	121.586	C.2	1	RES1	0.000	
16	 C37	94.176	3.209	120.232	C.2	1	RES1	0.000	
17	 C38	93.003	2.442	119.952	C.2	1	RES1	0.000	
18	 C39	92.445	2.550	118.682	C.2	1	RES1	0.000	
19	 C40	92.969	3.326	117.685	C.2	1	RES1	0.000	
20	 C41	94.119	4.043	117.972	C.2	1	RES1	0.000	
21	 C42	94.724	3.999	119.230	C.2	1	RES1	0.000	
22	 C43	89.752	-0.253	121.437	C.2	1	RES1	0.000	
23	 C44	88.699	-1.132	121.663	C.2	1	RES1	0.000	
24	  F1	94.668	4.811	117.014	 F	1	RES1	0.000	
@<TRIPOS>BOND
1 1 2 1
2 2 6 1
3 5 15 2
4 6 7 1
5 7 8 ar
6 7 23 ar
7 8 9 ar
8 9 10 ar
9 10 11 1
10 10 22 ar
11 4 11 ar
12 11 12 ar
13 12 13 1
14 12 17 ar
15 13 14 1
16 3 14 1
17 3 15 1
18 15 16 1
19 16 17 ar
20 16 21 ar
21 17 18 ar
22 4 18 ar
23 18 19 ar
24 19 20 ar
25 20 21 ar
26 22 23 ar
27 20 24 1
@<TRIPOS>SUBSTRUCTURE
1	RES1	1	GROUP	1 ****	RES
