# created with PyMOL 2.5.2
@<TRIPOS>MOLECULE
PARP1_4RV6_TargetProtein
24 27 1                 
SMALL
USER_CHARGES
@<TRIPOS>ATOM
1	  C1	85.515	-3.792	122.484	C.3	1	RES1	0.000	
2	  N1	86.635	-2.905	122.244	N.3	1	RES1	0.000	
3	  N5	94.697	2.224	122.480	N.pl3	1	RES1	0.000	
4	  N6	91.337	1.769	118.692	N.2	1	RES1	0.000	
5	 O11	95.545	4.202	121.860	O.2	1	RES1	0.000	
6	 C29	86.692	-2.485	120.832	C.3	1	RES1	0.000	
7	 C30	87.842	-1.533	120.600	C.2	1	RES1	0.000	
8	 C31	88.619	-1.075	121.659	C.2	1	RES1	0.000	
9	 C32	89.690	-0.196	121.437	C.2	1	RES1	0.000	
10	 C33	89.999	0.286	120.173	C.2	1	RES1	0.000	
11	 C34	91.130	1.142	119.903	C.2	1	RES1	0.000	
12	 C35	92.213	1.533	120.713	C.2	1	RES1	0.000	
13	 C36	92.533	1.063	122.078	C.3	1	RES1	0.000	
14	 C37	94.045	0.932	122.327	C.3	1	RES1	0.000	
15	 C38	94.846	3.230	121.572	C.2	1	RES1	0.000	
16	 C39	94.179	3.204	120.240	C.2	1	RES1	0.000	
17	 C40	92.998	2.466	119.978	C.2	1	RES1	0.000	
18	 C41	92.425	2.546	118.737	C.2	1	RES1	0.000	
19	 C42	92.943	3.343	117.698	C.2	1	RES1	0.000	
20	 C43	94.117	4.072	117.975	C.2	1	RES1	0.000	
21	 C44	94.691	4.014	119.233	C.2	1	RES1	0.000	
22	 C45	89.221	-0.210	119.087	C.2	1	RES1	0.000	
23	 C46	88.157	-1.096	119.332	C.2	1	RES1	0.000	
24	  F1	94.602	4.859	117.032	 F	1	RES1	0.000	
@<TRIPOS>BOND
1 1 2 1
2 2 6 1
3 5 15 2
4 6 7 1
5 7 8 ar
6 7 23 ar
7 8 9 ar
8 9 10 ar
9 10 11 1
10 10 22 ar
11 4 11 ar
12 11 12 ar
13 12 13 1
14 12 17 ar
15 13 14 1
16 3 14 1
17 3 15 1
18 15 16 1
19 16 17 ar
20 16 21 ar
21 17 18 ar
22 4 18 ar
23 18 19 ar
24 19 20 ar
25 20 21 ar
26 22 23 ar
27 20 24 1
@<TRIPOS>SUBSTRUCTURE
1	RES1	1	GROUP	1 ****	RES
