# created with PyMOL 2.5.2
@<TRIPOS>MOLECULE
PARP1_4RV6_TargetProtein
24 27 1                 
SMALL
USER_CHARGES
@<TRIPOS>ATOM
1	  C1	85.476	-3.828	122.413	C.3	1	RES1	0.000	
2	  N1	86.653	-2.981	122.203	N.3	1	RES1	0.000	
3	  N5	94.538	2.446	122.598	N.pl3	1	RES1	0.000	
4	  N6	91.268	1.838	118.719	N.2	1	RES1	0.000	
5	 O12	96.250	3.229	121.370	O.2	1	RES1	0.000	
6	 C31	86.701	-2.492	120.823	C.3	1	RES1	0.000	
7	 C32	87.902	-1.579	120.594	C.2	1	RES1	0.000	
8	 C33	88.749	-1.203	121.637	C.2	1	RES1	0.000	
9	 C34	89.807	-0.342	121.412	C.2	1	RES1	0.000	
10	 C35	90.079	0.150	120.124	C.2	1	RES1	0.000	
11	 C36	91.183	1.093	119.897	C.2	1	RES1	0.000	
12	 C37	92.264	1.492	120.718	C.2	1	RES1	0.000	
13	 C38	92.531	1.054	122.087	C.3	1	RES1	0.000	
14	 C39	93.157	2.180	122.916	C.3	1	RES1	0.000	
15	 C40	95.081	2.934	121.426	C.2	1	RES1	0.000	
16	 C41	94.243	3.127	120.198	C.2	1	RES1	0.000	
17	 C42	93.039	2.434	119.953	C.2	1	RES1	0.000	
18	 C43	92.379	2.627	118.759	C.2	1	RES1	0.000	
19	 C44	92.823	3.509	117.761	C.2	1	RES1	0.000	
20	 C45	94.005	4.194	118.015	C.2	1	RES1	0.000	
21	 C46	94.705	4.008	119.224	C.2	1	RES1	0.000	
22	 C47	89.224	-0.234	119.094	C.2	1	RES1	0.000	
23	 C48	88.141	-1.081	119.314	C.2	1	RES1	0.000	
24	  F1	94.474	5.019	117.108	 F	1	RES1	0.000	
@<TRIPOS>BOND
1 1 2 1
2 2 6 1
3 5 15 2
4 6 7 1
5 7 8 ar
6 7 23 ar
7 8 9 ar
8 9 10 ar
9 10 11 1
10 10 22 ar
11 4 11 ar
12 11 12 ar
13 12 13 1
14 12 17 ar
15 13 14 1
16 3 14 1
17 3 15 1
18 15 16 1
19 16 17 ar
20 16 21 ar
21 17 18 ar
22 4 18 ar
23 18 19 ar
24 19 20 ar
25 20 21 ar
26 22 23 ar
27 20 24 1
@<TRIPOS>SUBSTRUCTURE
1	RES1	1	GROUP	1 ****	RES
