# created with PyMOL 2.5.2
@<TRIPOS>MOLECULE
PARP1_3GN7_TargetProtein
18 20 1                 
SMALL
USER_CHARGES
@<TRIPOS>ATOM
1	  C1	24.062	62.419	7.034	C.3	1	RES1	0.000	
2	  N1	25.266	65.285	8.735	N.2	1	RES1	0.000	
3	  O1	26.479	68.057	11.807	O.2	1	RES1	0.000	
4	  C2	24.341	63.926	6.818	C.3	1	RES1	0.000	
5	  N2	24.678	67.031	10.884	N.pl3	1	RES1	0.000	
6	  C3	25.404	64.398	7.799	C.2	1	RES1	0.000	
7	  N3	26.694	63.895	7.798	N.2	1	RES1	0.000	
8	  C4	26.506	65.386	9.358	C.2	1	RES1	0.000	
9	  N4	24.683	64.171	5.426	N.3	1	RES1	0.000	
10	  C5	26.944	66.203	10.440	C.2	1	RES1	0.000	
11	  C6	26.019	67.168	11.105	C.2	1	RES1	0.000	
12	  C7	28.267	66.094	10.855	C.2	1	RES1	0.000	
13	  C8	29.126	65.190	10.227	C.2	1	RES1	0.000	
14	  C9	28.709	64.390	9.182	C.2	1	RES1	0.000	
15	 C10	27.389	64.524	8.768	C.2	1	RES1	0.000	
16	 C11	23.045	64.727	6.965	C.3	1	RES1	0.000	
17	 C12	23.296	65.967	6.097	C.3	1	RES1	0.000	
18	 C13	24.410	65.603	5.167	C.3	1	RES1	0.000	
@<TRIPOS>BOND
1 1 4 1
2 2 6 ar
3 2 8 ar
4 3 11 2
5 4 6 1
6 4 9 1
7 5 11 1
8 6 7 ar
9 8 10 ar
10 10 11 1
11 10 12 ar
12 12 13 ar
13 13 14 ar
14 7 15 ar
15 8 15 ar
16 14 15 ar
17 4 16 1
18 16 17 1
19 17 18 1
20 9 18 1
@<TRIPOS>SUBSTRUCTURE
1	RES1	1	GROUP	1 ****	RES
