# created with PyMOL 2.5.2
@<TRIPOS>MOLECULE
PARP1_3GN7_TargetProtein
18 20 1                 
SMALL
USER_CHARGES
@<TRIPOS>ATOM
1	  C1	24.047	62.564	7.051	C.3	1	RES1	0.000	
2	  N1	25.319	65.378	8.762	N.2	1	RES1	0.000	
3	  O1	26.571	68.063	11.910	O.2	1	RES1	0.000	
4	  C2	24.382	64.067	6.808	C.3	1	RES1	0.000	
5	  N2	24.742	67.059	10.962	N.pl3	1	RES1	0.000	
6	  C3	25.419	64.490	7.805	C.2	1	RES1	0.000	
7	  N3	26.678	63.960	7.821	N.2	1	RES1	0.000	
8	  C4	26.526	65.424	9.411	C.2	1	RES1	0.000	
9	  N4	24.823	64.255	5.445	N.3	1	RES1	0.000	
10	  C5	26.993	66.214	10.495	C.2	1	RES1	0.000	
11	  C6	26.112	67.176	11.170	C.2	1	RES1	0.000	
12	  C7	28.285	66.017	10.922	C.2	1	RES1	0.000	
13	  C8	29.157	65.096	10.309	C.2	1	RES1	0.000	
14	  C9	28.725	64.316	9.236	C.2	1	RES1	0.000	
15	 C10	27.414	64.508	8.822	C.2	1	RES1	0.000	
16	 C11	23.110	64.927	6.966	C.3	1	RES1	0.000	
17	 C12	23.188	65.879	5.836	C.3	1	RES1	0.000	
18	 C13	23.826	65.037	4.733	C.3	1	RES1	0.000	
@<TRIPOS>BOND
1 1 4 1
2 2 6 ar
3 2 8 ar
4 3 11 2
5 4 6 1
6 4 9 1
7 5 11 1
8 6 7 ar
9 8 10 ar
10 10 11 1
11 10 12 ar
12 12 13 ar
13 13 14 ar
14 7 15 ar
15 8 15 ar
16 14 15 ar
17 4 16 1
18 16 17 1
19 17 18 1
20 9 18 1
@<TRIPOS>SUBSTRUCTURE
1	RES1	1	GROUP	1 ****	RES
