# created with PyMOL 2.5.2
@<TRIPOS>MOLECULE
PARP1_3GN7_TargetProtein
18 20 1                 
SMALL
USER_CHARGES
@<TRIPOS>ATOM
1	  C1	24.026	62.438	7.054	C.3	1	RES1	0.000	
2	  N1	25.280	65.303	8.767	N.2	1	RES1	0.000	
3	  O1	26.466	68.064	11.810	O.2	1	RES1	0.000	
4	  C2	24.341	63.929	6.845	C.3	1	RES1	0.000	
5	  N2	24.673	67.023	10.905	N.pl3	1	RES1	0.000	
6	  C3	25.393	64.378	7.782	C.2	1	RES1	0.000	
7	  N3	26.679	63.882	7.807	N.2	1	RES1	0.000	
8	  C4	26.507	65.394	9.353	C.2	1	RES1	0.000	
9	  N4	24.684	64.154	5.421	N.3	1	RES1	0.000	
10	  C5	26.923	66.212	10.431	C.2	1	RES1	0.000	
11	  C6	26.033	67.165	11.114	C.2	1	RES1	0.000	
12	  C7	28.278	66.081	10.854	C.2	1	RES1	0.000	
13	  C8	29.133	65.209	10.232	C.2	1	RES1	0.000	
14	  C9	28.729	64.381	9.165	C.2	1	RES1	0.000	
15	 C10	27.396	64.518	8.762	C.2	1	RES1	0.000	
16	 C11	23.041	64.746	6.947	C.3	1	RES1	0.000	
17	 C12	23.303	65.992	6.070	C.3	1	RES1	0.000	
18	 C13	24.432	65.565	5.145	C.3	1	RES1	0.000	
@<TRIPOS>BOND
1 1 4 1
2 2 6 ar
3 2 8 ar
4 3 11 2
5 4 6 1
6 4 9 1
7 5 11 1
8 6 7 ar
9 8 10 ar
10 10 11 1
11 10 12 ar
12 12 13 ar
13 13 14 ar
14 7 15 ar
15 8 15 ar
16 14 15 ar
17 4 16 1
18 16 17 1
19 17 18 1
20 9 18 1
@<TRIPOS>SUBSTRUCTURE
1	RES1	1	GROUP	1 ****	RES
