# created with PyMOL 2.5.2
@<TRIPOS>MOLECULE
PARP1_3GN7_TargetProtein
18 20 1                 
SMALL
USER_CHARGES
@<TRIPOS>ATOM
1	  C1	24.057	62.422	7.041	C.3	1	RES1	0.000	
2	  N1	25.274	65.301	8.762	N.2	1	RES1	0.000	
3	  O1	26.465	68.068	11.832	O.2	1	RES1	0.000	
4	  C2	24.342	63.916	6.836	C.3	1	RES1	0.000	
5	  N2	24.682	67.043	10.905	N.pl3	1	RES1	0.000	
6	  C3	25.389	64.373	7.774	C.2	1	RES1	0.000	
7	  N3	26.679	63.888	7.778	N.2	1	RES1	0.000	
8	  C4	26.497	65.385	9.370	C.2	1	RES1	0.000	
9	  N4	24.681	64.167	5.427	N.3	1	RES1	0.000	
10	  C5	26.937	66.202	10.433	C.2	1	RES1	0.000	
11	  C6	26.024	67.178	11.098	C.2	1	RES1	0.000	
12	  C7	28.263	66.094	10.842	C.2	1	RES1	0.000	
13	  C8	29.146	65.173	10.225	C.2	1	RES1	0.000	
14	  C9	28.706	64.400	9.170	C.2	1	RES1	0.000	
15	 C10	27.401	64.527	8.781	C.2	1	RES1	0.000	
16	 C11	23.053	64.732	6.946	C.3	1	RES1	0.000	
17	 C12	23.307	65.972	6.084	C.3	1	RES1	0.000	
18	 C13	24.416	65.592	5.161	C.3	1	RES1	0.000	
@<TRIPOS>BOND
1 1 4 1
2 2 6 ar
3 2 8 ar
4 3 11 2
5 4 6 1
6 4 9 1
7 5 11 1
8 6 7 ar
9 8 10 ar
10 10 11 1
11 10 12 ar
12 12 13 ar
13 13 14 ar
14 7 15 ar
15 8 15 ar
16 14 15 ar
17 4 16 1
18 16 17 1
19 17 18 1
20 9 18 1
@<TRIPOS>SUBSTRUCTURE
1	RES1	1	GROUP	1 ****	RES
