# created with PyMOL 2.5.2
@<TRIPOS>MOLECULE
PARP1_4R6E_TargetProtein
24 27 1                 
SMALL
USER_CHARGES
@<TRIPOS>ATOM
1	  C1	-72.527	19.383	25.366	C.2	1	RES1	0.000	
2	  N1	-72.474	20.034	26.576	N.pl3	1	RES1	0.000	
3	  O1	-73.377	18.535	25.140	O.2	1	RES1	0.000	
4	  C2	-71.508	19.713	24.347	C.2	1	RES1	0.000	
5	  N2	-69.063	22.136	25.273	N.2	1	RES1	0.000	
6	  C3	-71.527	19.137	23.059	C.2	1	RES1	0.000	
7	  N3	-67.133	27.209	31.064	N.3	1	RES1	0.000	
8	  C4	-70.582	19.460	22.065	C.2	1	RES1	0.000	
9	  C5	-69.541	20.384	22.242	C.2	1	RES1	0.000	
10	  C6	-69.565	20.930	23.536	C.2	1	RES1	0.000	
11	  C7	-68.678	21.862	24.002	C.2	1	RES1	0.000	
12	  N7	-70.190	21.399	25.623	N.2	1	RES1	0.000	
13	  C8	-68.471	23.041	26.219	C.2	1	RES1	0.000	
14	  C9	-68.534	22.792	27.582	C.2	1	RES1	0.000	
15	 C10	-67.966	23.666	28.469	C.2	1	RES1	0.000	
16	 C11	-67.320	24.835	28.059	C.2	1	RES1	0.000	
17	 C12	-66.695	25.808	29.075	C.3	1	RES1	0.000	
18	 C13	-65.437	25.240	29.720	C.3	1	RES1	0.000	
19	 C14	-64.876	26.211	30.755	C.3	1	RES1	0.000	
20	 C15	-65.979	26.648	31.753	C.3	1	RES1	0.000	
21	 C39	-67.738	26.266	30.129	C.3	1	RES1	0.000	
22	 C40	-67.276	25.078	26.669	C.2	1	RES1	0.000	
23	 C41	-67.795	24.210	25.763	C.2	1	RES1	0.000	
24	 C42	-70.459	20.682	24.549	C.2	1	RES1	0.000	
@<TRIPOS>BOND
1 1 4 1
2 1 2 1
3 1 3 2
4 4 6 ar
5 4 24 ar
6 5 11 ar
7 5 12 ar
8 5 13 1
9 6 8 ar
10 7 21 1
11 8 9 ar
12 9 10 ar
13 10 11 ar
14 13 14 ar
15 14 15 ar
16 15 16 ar
17 16 17 1
18 16 22 ar
19 17 18 1
20 17 21 1
21 18 19 1
22 19 20 1
23 7 20 1
24 22 23 ar
25 13 23 ar
26 10 24 ar
27 12 24 ar
@<TRIPOS>SUBSTRUCTURE
1	RES1	1	GROUP	1 ****	RES
