# created with PyMOL 2.5.2
@<TRIPOS>MOLECULE
BRD2_4ALH_TargetProtein
35 40 1                 
SMALL
USER_CHARGES
@<TRIPOS>ATOM
1	  C1	-2.509	8.794	26.678	C.3	1	RES1	0.000	
2	  N1	-1.910	8.387	24.306	N.2	1	RES1	0.000	
3	  O1	4.960	6.904	26.733	O.2	1	RES1	0.000	
4	  C2	-2.629	7.886	25.464	C.3	1	RES1	0.000	
5	  N2	-2.614	8.996	23.334	N.2	1	RES1	0.000	
6	  C3	-1.686	9.334	22.424	C.2	1	RES1	0.000	
7	  N3	0.317	7.740	24.924	N.pl3	1	RES1	0.000	
8	  C4	-1.970	10.055	21.106	C.3	1	RES1	0.000	
9	  N4	2.536	6.849	25.358	N.2	1	RES1	0.000	
10	  C5	-3.274	9.771	20.396	C.3	1	RES1	0.000	
11	  C6	-2.008	9.257	19.819	C.3	1	RES1	0.000	
12	  O6	-3.137	5.417	21.066	O.3	1	RES1	0.000	
13	  C7	-0.381	8.914	22.822	C.2	1	RES1	0.000	
14	  O7	-2.443	2.273	17.793	O.2	1	RES1	0.000	
15	  C8	-0.549	8.304	24.037	C.2	1	RES1	0.000	
16	  C9	1.350	6.813	24.653	C.2	1	RES1	0.000	
17	  N9	3.486	4.960	24.170	N.2	1	RES1	0.000	
18	 C10	3.492	5.936	25.062	C.2	1	RES1	0.000	
19	 N10	-3.504	1.957	18.645	N.2	1	RES1	0.000	
20	 C11	4.752	6.040	25.870	C.2	1	RES1	0.000	
21	 N11	2.012	4.023	22.552	N.2	1	RES1	0.000	
22	 C27	2.302	4.944	23.535	C.2	1	RES1	0.000	
23	 C28	1.206	5.793	23.680	C.2	1	RES1	0.000	
24	 C29	0.217	5.325	22.757	C.2	1	RES1	0.000	
25	 C30	-1.101	5.737	22.449	C.2	1	RES1	0.000	
26	 C31	-1.818	5.072	21.442	C.2	1	RES1	0.000	
27	 C32	-3.821	6.371	21.902	C.3	1	RES1	0.000	
28	 C33	-1.252	3.970	20.773	C.2	1	RES1	0.000	
29	 C34	-1.975	3.219	19.743	C.2	1	RES1	0.000	
30	 C35	-1.520	3.051	18.440	C.2	1	RES1	0.000	
31	 C36	-0.355	3.493	17.658	C.3	1	RES1	0.000	
32	 C37	-3.190	2.518	19.806	C.2	1	RES1	0.000	
33	 C38	-4.112	2.357	20.952	C.3	1	RES1	0.000	
34	 C39	0.033	3.567	21.084	C.2	1	RES1	0.000	
35	 C40	0.745	4.260	22.047	C.2	1	RES1	0.000	
@<TRIPOS>BOND
1 1 4 1
2 2 4 1
3 2 5 ar
4 2 15 ar
5 3 20 2
6 5 6 ar
7 6 8 1
8 6 13 ar
9 7 15 1
10 7 16 1
11 8 10 1
12 8 11 1
13 9 16 ar
14 10 11 1
15 13 15 ar
16 9 18 ar
17 17 18 ar
18 18 20 1
19 14 19 ar
20 19 32 ar
21 21 22 ar
22 21 35 ar
23 17 22 ar
24 22 23 ar
25 16 23 ar
26 23 24 ar
27 24 25 ar
28 24 35 ar
29 25 26 ar
30 12 26 1
31 26 28 ar
32 12 27 1
33 28 29 1
34 28 34 ar
35 29 30 ar
36 29 32 ar
37 14 30 ar
38 30 31 1
39 32 33 1
40 34 35 ar
@<TRIPOS>SUBSTRUCTURE
1	RES1	1	GROUP	1 ****	RES
