# created with PyMOL 2.5.2
@<TRIPOS>MOLECULE
BRD9_6HM0_TargetProtein
33 36 1                 
SMALL
USER_CHARGES
@<TRIPOS>ATOM
1	  C1	6.475	-3.085	-1.119	C.3	1	RES1	0.000	
2	  N1	9.758	0.358	-5.309	N.2	1	RES1	0.000	
3	  O1	5.274	-3.032	-1.908	O.3	1	RES1	0.000	
4	  C2	5.258	-2.135	-2.966	C.2	1	RES1	0.000	
5	  N2	7.905	-0.210	-9.749	N.2	1	RES1	0.000	
6	  O2	11.040	0.788	-7.211	O.2	1	RES1	0.000	
7	  C3	6.385	-1.751	-3.679	C.2	1	RES1	0.000	
8	  N3	2.149	-0.974	-1.758	N.3	1	RES1	0.000	
9	  O3	2.586	-0.254	-4.715	O.3	1	RES1	0.000	
10	  C4	6.296	-0.833	-4.715	C.2	1	RES1	0.000	
11	  N4	-0.042	0.241	-0.209	N.3	1	RES1	0.000	
12	  O4	0.252	3.591	0.974	O.3	1	RES1	0.000	
13	  C5	7.501	-0.404	-5.468	C.2	1	RES1	0.000	
14	  C6	8.575	-0.056	-4.746	C.2	1	RES1	0.000	
15	  C7	10.870	0.675	-4.409	C.3	1	RES1	0.000	
16	  C8	9.974	0.428	-6.666	C.2	1	RES1	0.000	
17	  C9	8.830	0.066	-7.548	C.2	1	RES1	0.000	
18	 C10	8.921	0.109	-8.925	C.2	1	RES1	0.000	
19	 C11	6.746	-0.589	-9.161	C.2	1	RES1	0.000	
20	 C12	6.539	-0.655	-7.803	C.2	1	RES1	0.000	
21	 C13	7.624	-0.329	-6.954	C.2	1	RES1	0.000	
22	 C14	5.047	-0.322	-5.098	C.2	1	RES1	0.000	
23	 C15	3.877	-0.719	-4.398	C.2	1	RES1	0.000	
24	 C16	2.379	0.253	-6.045	C.3	1	RES1	0.000	
25	 C17	3.987	-1.640	-3.338	C.2	1	RES1	0.000	
26	 C18	2.735	-2.061	-2.574	C.3	1	RES1	0.000	
27	 C19	0.989	-0.342	-2.404	C.3	1	RES1	0.000	
28	 C20	0.357	0.731	-1.528	C.3	1	RES1	0.000	
29	 C21	-0.642	1.333	0.597	C.3	1	RES1	0.000	
30	 C22	0.414	2.219	1.320	C.3	1	RES1	0.000	
31	 C23	0.526	4.493	2.075	C.3	1	RES1	0.000	
32	 C42	1.101	-0.398	0.465	C.3	1	RES1	0.000	
33	 C43	1.748	-1.492	-0.438	C.3	1	RES1	0.000	
@<TRIPOS>BOND
1 2 14 ar
2 2 15 1
3 2 16 ar
4 1 3 1
5 3 4 1
6 4 7 ar
7 6 16 2
8 7 10 ar
9 8 33 1
10 10 13 1
11 11 32 1
12 13 14 ar
13 16 17 ar
14 5 18 ar
15 17 18 ar
16 5 19 ar
17 19 20 ar
18 20 21 ar
19 13 21 ar
20 17 21 ar
21 10 22 ar
22 22 23 ar
23 9 23 1
24 23 25 ar
25 9 24 1
26 4 25 ar
27 25 26 1
28 8 26 1
29 8 27 1
30 27 28 1
31 11 28 1
32 11 29 1
33 29 30 1
34 12 30 1
35 12 31 1
36 32 33 1
@<TRIPOS>SUBSTRUCTURE
1	RES1	1	GROUP	1 ****	RES
