# created with PyMOL 2.5.2
@<TRIPOS>MOLECULE
PARP1_4R6E_TargetProtein
24 27 1                 
SMALL
USER_CHARGES
@<TRIPOS>ATOM
1	  C1	-72.503	19.305	25.383	C.2	1	RES1	0.000	
2	  N1	-72.424	19.951	26.567	N.pl3	1	RES1	0.000	
3	  O1	-73.336	18.443	25.161	O.2	1	RES1	0.000	
4	  C2	-71.484	19.707	24.340	C.2	1	RES1	0.000	
5	  N2	-69.100	22.135	25.280	N.2	1	RES1	0.000	
6	  C3	-71.509	19.138	23.032	C.2	1	RES1	0.000	
7	  N3	-67.060	27.299	30.999	N.3	1	RES1	0.000	
8	  C4	-70.596	19.528	22.030	C.2	1	RES1	0.000	
9	  C5	-69.561	20.452	22.225	C.2	1	RES1	0.000	
10	  C6	-69.596	20.977	23.515	C.2	1	RES1	0.000	
11	  C7	-68.706	21.915	23.984	C.2	1	RES1	0.000	
12	  N7	-70.164	21.389	25.643	N.2	1	RES1	0.000	
13	  C8	-68.479	23.076	26.214	C.2	1	RES1	0.000	
14	  C9	-67.724	24.145	25.771	C.2	1	RES1	0.000	
15	 C10	-67.152	25.025	26.712	C.2	1	RES1	0.000	
16	 C11	-67.307	24.832	28.068	C.2	1	RES1	0.000	
17	 C12	-66.669	25.787	29.051	C.3	1	RES1	0.000	
18	 C13	-65.478	25.149	29.783	C.3	1	RES1	0.000	
19	 C14	-64.913	26.134	30.795	C.3	1	RES1	0.000	
20	 C15	-65.985	26.696	31.744	C.3	1	RES1	0.000	
21	 C41	-67.686	26.350	30.052	C.3	1	RES1	0.000	
22	 C42	-68.081	23.720	28.516	C.2	1	RES1	0.000	
23	 C43	-68.673	22.847	27.589	C.2	1	RES1	0.000	
24	 C44	-70.493	20.650	24.570	C.2	1	RES1	0.000	
@<TRIPOS>BOND
1 1 4 1
2 1 2 1
3 1 3 2
4 4 6 ar
5 4 24 ar
6 5 11 ar
7 5 12 ar
8 5 13 1
9 6 8 ar
10 7 21 1
11 8 9 ar
12 9 10 ar
13 10 11 ar
14 13 14 ar
15 14 15 ar
16 15 16 ar
17 16 17 1
18 16 22 ar
19 17 18 1
20 17 21 1
21 18 19 1
22 19 20 1
23 7 20 1
24 22 23 ar
25 13 23 ar
26 10 24 ar
27 12 24 ar
@<TRIPOS>SUBSTRUCTURE
1	RES1	1	GROUP	1 ****	RES
