# created with PyMOL 2.5.2
@<TRIPOS>MOLECULE
PARP1_4R6E_TargetProtein
24 27 1                 
SMALL
USER_CHARGES
@<TRIPOS>ATOM
1	  C1	-72.542	19.359	25.373	C.2	1	RES1	0.000	
2	  N1	-72.488	20.001	26.565	N.pl3	1	RES1	0.000	
3	  O1	-73.362	18.511	25.108	O.2	1	RES1	0.000	
4	  C2	-71.517	19.722	24.342	C.2	1	RES1	0.000	
5	  N2	-69.062	22.141	25.300	N.2	1	RES1	0.000	
6	  C3	-71.523	19.162	23.064	C.2	1	RES1	0.000	
7	  N3	-67.136	27.213	31.060	N.3	1	RES1	0.000	
8	  C4	-70.560	19.443	22.064	C.2	1	RES1	0.000	
9	  C5	-69.532	20.404	22.279	C.2	1	RES1	0.000	
10	  C6	-69.564	20.950	23.532	C.2	1	RES1	0.000	
11	  C7	-68.671	21.871	23.980	C.2	1	RES1	0.000	
12	  N7	-70.189	21.391	25.635	N.2	1	RES1	0.000	
13	  C8	-68.493	23.054	26.220	C.2	1	RES1	0.000	
14	  C9	-68.527	22.800	27.589	C.2	1	RES1	0.000	
15	 C10	-67.962	23.689	28.506	C.2	1	RES1	0.000	
16	 C11	-67.297	24.850	28.056	C.2	1	RES1	0.000	
17	 C12	-66.685	25.798	29.049	C.3	1	RES1	0.000	
18	 C13	-65.435	25.217	29.713	C.3	1	RES1	0.000	
19	 C14	-64.896	26.199	30.771	C.3	1	RES1	0.000	
20	 C15	-65.982	26.644	31.750	C.3	1	RES1	0.000	
21	 C43	-67.716	26.287	30.108	C.3	1	RES1	0.000	
22	 C44	-67.247	25.077	26.650	C.2	1	RES1	0.000	
23	 C45	-67.826	24.219	25.760	C.2	1	RES1	0.000	
24	 C46	-70.489	20.654	24.553	C.2	1	RES1	0.000	
@<TRIPOS>BOND
1 1 4 1
2 1 2 1
3 1 3 2
4 4 6 ar
5 4 24 ar
6 5 11 ar
7 5 12 ar
8 5 13 1
9 6 8 ar
10 7 21 1
11 8 9 ar
12 9 10 ar
13 10 11 ar
14 13 14 ar
15 14 15 ar
16 15 16 ar
17 16 17 1
18 16 22 ar
19 17 18 1
20 17 21 1
21 18 19 1
22 19 20 1
23 7 20 1
24 22 23 ar
25 13 23 ar
26 10 24 ar
27 12 24 ar
@<TRIPOS>SUBSTRUCTURE
1	RES1	1	GROUP	1 ****	RES
