# created with PyMOL 2.5.2
@<TRIPOS>MOLECULE
PARP1_4R6E_TargetProtein
24 27 1                 
SMALL
USER_CHARGES
@<TRIPOS>ATOM
1	  C1	-72.479	19.310	25.376	C.2	1	RES1	0.000	
2	  N1	-72.423	19.946	26.583	N.pl3	1	RES1	0.000	
3	  O1	-73.323	18.456	25.148	O.2	1	RES1	0.000	
4	  C2	-71.492	19.717	24.359	C.2	1	RES1	0.000	
5	  N2	-69.076	22.150	25.272	N.2	1	RES1	0.000	
6	  C3	-71.523	19.158	23.058	C.2	1	RES1	0.000	
7	  N3	-67.089	27.292	30.997	N.3	1	RES1	0.000	
8	  C4	-70.595	19.513	22.043	C.2	1	RES1	0.000	
9	  C5	-69.572	20.444	22.222	C.2	1	RES1	0.000	
10	  C6	-69.599	20.971	23.519	C.2	1	RES1	0.000	
11	  C7	-68.718	21.929	23.980	C.2	1	RES1	0.000	
12	  N7	-70.157	21.389	25.651	N.2	1	RES1	0.000	
13	  C8	-68.486	23.053	26.202	C.2	1	RES1	0.000	
14	  C9	-67.735	24.152	25.763	C.2	1	RES1	0.000	
15	 C10	-67.153	25.007	26.698	C.2	1	RES1	0.000	
16	 C11	-67.314	24.835	28.045	C.2	1	RES1	0.000	
17	 C12	-66.670	25.785	29.039	C.3	1	RES1	0.000	
18	 C13	-65.495	25.154	29.798	C.3	1	RES1	0.000	
19	 C14	-64.898	26.141	30.834	C.3	1	RES1	0.000	
20	 C15	-65.979	26.675	31.756	C.3	1	RES1	0.000	
21	 C45	-67.704	26.344	30.036	C.3	1	RES1	0.000	
22	 C46	-68.068	23.728	28.508	C.2	1	RES1	0.000	
23	 C47	-68.636	22.839	27.580	C.2	1	RES1	0.000	
24	 C48	-70.476	20.659	24.549	C.2	1	RES1	0.000	
@<TRIPOS>BOND
1 1 4 1
2 1 2 1
3 1 3 2
4 4 6 ar
5 4 24 ar
6 5 11 ar
7 5 12 ar
8 5 13 1
9 6 8 ar
10 7 21 1
11 8 9 ar
12 9 10 ar
13 10 11 ar
14 13 14 ar
15 14 15 ar
16 15 16 ar
17 16 17 1
18 16 22 ar
19 17 18 1
20 17 21 1
21 18 19 1
22 19 20 1
23 7 20 1
24 22 23 ar
25 13 23 ar
26 10 24 ar
27 12 24 ar
@<TRIPOS>SUBSTRUCTURE
1	RES1	1	GROUP	1 ****	RES
