# created with PyMOL 2.5.2
@<TRIPOS>MOLECULE
BTK_5P9J_TargetProtein
33 37 1                 
SMALL
USER_CHARGES
@<TRIPOS>ATOM
1	  C1	18.063	5.151	1.646	C.2	1	RES1	0.000	
2	  N1	16.954	4.812	2.447	N.pl3	1	RES1	0.000	
3	  O1	17.427	5.723	8.520	O.3	1	RES1	0.000	
4	  C2	19.026	5.209	-0.445	C.2	1	RES1	0.000	
5	  N2	18.005	4.859	0.327	N.2	1	RES1	0.000	
6	  O2	22.872	9.627	-1.914	O.2	1	RES1	0.000	
7	  C3	20.208	6.079	1.205	C.2	1	RES1	0.000	
8	  N3	20.168	5.848	-0.097	N.2	1	RES1	0.000	
9	  C4	19.226	5.767	2.149	C.2	1	RES1	0.000	
10	  N4	20.931	6.814	3.263	N.2	1	RES1	0.000	
11	  C5	19.736	6.227	3.377	C.2	1	RES1	0.000	
12	  N5	21.189	6.712	1.936	N.2	1	RES1	0.000	
13	  C6	19.149	6.117	4.702	C.2	1	RES1	0.000	
14	  N6	23.528	9.183	0.262	N.pl3	1	RES1	0.000	
15	  C7	18.985	7.225	5.531	C.2	1	RES1	0.000	
16	  C8	18.418	7.149	6.786	C.2	1	RES1	0.000	
17	  C9	18.016	5.879	7.270	C.2	1	RES1	0.000	
18	 C10	16.490	6.654	8.909	C.2	1	RES1	0.000	
19	 C11	15.607	7.265	7.998	C.2	1	RES1	0.000	
20	 C12	14.713	8.250	8.458	C.2	1	RES1	0.000	
21	 C13	14.704	8.602	9.797	C.2	1	RES1	0.000	
22	 C14	15.611	8.026	10.708	C.2	1	RES1	0.000	
23	 C15	16.487	7.063	10.272	C.2	1	RES1	0.000	
24	 C16	18.157	4.763	6.480	C.2	1	RES1	0.000	
25	 C17	18.709	4.852	5.205	C.2	1	RES1	0.000	
26	 C18	22.445	7.263	1.391	C.3	1	RES1	0.000	
27	 C19	23.616	7.174	2.361	C.3	1	RES1	0.000	
28	 C20	24.901	7.745	1.713	C.3	1	RES1	0.000	
29	 C21	24.655	9.152	1.189	C.3	1	RES1	0.000	
30	 C22	23.682	9.747	-1.010	C.2	1	RES1	0.000	
31	 C23	24.944	10.586	-1.258	C.3	1	RES1	0.000	
32	 C24	24.888	11.953	-0.641	C.3	1	RES1	0.000	
33	 C50	22.285	8.678	0.823	C.3	1	RES1	0.000	
@<TRIPOS>BOND
1 1 2 1
2 1 5 ar
3 1 9 ar
4 3 17 1
5 3 18 1
6 4 8 ar
7 4 5 ar
8 6 30 2
9 7 8 ar
10 7 9 ar
11 7 12 ar
12 9 11 ar
13 10 11 ar
14 10 12 ar
15 11 13 1
16 13 15 ar
17 15 16 ar
18 16 17 ar
19 18 19 ar
20 18 23 ar
21 19 20 ar
22 20 21 ar
23 21 22 ar
24 22 23 ar
25 17 24 ar
26 24 25 ar
27 13 25 ar
28 12 26 1
29 26 27 1
30 26 33 1
31 27 28 1
32 28 29 1
33 14 29 1
34 14 30 1
35 30 31 1
36 31 32 1
37 14 33 1
@<TRIPOS>SUBSTRUCTURE
1	RES1	1	GROUP	1 ****	RES
