# created with PyMOL 2.5.2
@<TRIPOS>MOLECULE
BTK_5P9I_TargetProtein
33 37 1                 
SMALL
USER_CHARGES
@<TRIPOS>ATOM
1	  C1	-17.841	4.914	-17.490	C.2	1	RES1	0.000	
2	  N1	-18.906	4.663	-16.603	N.pl3	1	RES1	0.000	
3	  O1	-17.942	5.803	-10.573	O.3	1	RES1	0.000	
4	  C2	-17.019	4.878	-19.657	C.2	1	RES1	0.000	
5	  N2	-17.999	4.623	-18.770	N.2	1	RES1	0.000	
6	  O2	-12.903	9.696	-20.887	O.3	1	RES1	0.000	
7	  C3	-15.690	5.693	-18.064	C.2	1	RES1	0.000	
8	  N3	-15.832	5.434	-19.393	N.2	1	RES1	0.000	
9	  C4	-16.598	5.471	-17.064	C.2	1	RES1	0.000	
10	  N4	-14.779	6.427	-16.107	N.2	1	RES1	0.000	
11	  C5	-15.981	5.898	-15.882	C.2	1	RES1	0.000	
12	  N5	-14.600	6.293	-17.455	N.2	1	RES1	0.000	
13	  C6	-16.493	5.874	-14.510	C.2	1	RES1	0.000	
14	  N6	-12.072	8.617	-19.008	N.3	1	RES1	0.000	
15	  C7	-16.598	7.029	-13.753	C.2	1	RES1	0.000	
16	  C8	-17.096	6.991	-12.439	C.2	1	RES1	0.000	
17	  C9	-17.475	5.773	-11.901	C.2	1	RES1	0.000	
18	 C10	-18.985	6.693	-10.300	C.2	1	RES1	0.000	
19	 C11	-19.949	7.013	-11.263	C.2	1	RES1	0.000	
20	 C12	-20.945	7.964	-10.947	C.2	1	RES1	0.000	
21	 C13	-20.927	8.580	-9.692	C.2	1	RES1	0.000	
22	 C14	-19.941	8.283	-8.762	C.2	1	RES1	0.000	
23	 C15	-18.959	7.380	-9.088	C.2	1	RES1	0.000	
24	 C16	-17.349	4.609	-12.632	C.2	1	RES1	0.000	
25	 C17	-16.875	4.637	-13.928	C.2	1	RES1	0.000	
26	 C18	-13.341	6.704	-18.106	C.3	1	RES1	0.000	
27	 C19	-12.125	6.312	-17.242	C.3	1	RES1	0.000	
28	 C20	-10.850	6.812	-17.912	C.3	1	RES1	0.000	
29	 C21	-10.895	8.295	-18.210	C.3	1	RES1	0.000	
30	 C22	-11.928	9.383	-20.170	C.3	1	RES1	0.000	
31	 C23	-10.554	9.830	-20.541	C.3	1	RES1	0.000	
32	 C24	-10.067	11.001	-20.060	C.3	1	RES1	0.000	
33	 C49	-13.354	8.201	-18.423	C.3	1	RES1	0.000	
@<TRIPOS>BOND
1 1 2 1
2 1 5 ar
3 1 9 ar
4 3 17 1
5 3 18 1
6 4 5 ar
7 4 8 ar
8 6 30 1
9 7 9 ar
10 7 12 ar
11 7 8 ar
12 9 11 ar
13 10 11 ar
14 10 12 ar
15 11 13 1
16 13 15 ar
17 15 16 ar
18 16 17 ar
19 18 19 ar
20 18 23 ar
21 19 20 ar
22 20 21 ar
23 21 22 ar
24 22 23 ar
25 17 24 ar
26 24 25 ar
27 13 25 ar
28 12 26 1
29 26 27 1
30 26 33 1
31 27 28 1
32 28 29 1
33 14 29 1
34 14 30 1
35 30 31 1
36 31 32 1
37 14 33 1
@<TRIPOS>SUBSTRUCTURE
1	RES1	1	GROUP	1 ****	RES
