# created with PyMOL 2.5.2
@<TRIPOS>MOLECULE
BTK_5P9I_TargetProtein
33 37 1                 
SMALL
USER_CHARGES
@<TRIPOS>ATOM
1	  C1	-17.793	4.876	-17.495	C.2	1	RES1	0.000	
2	  N1	-18.821	4.500	-16.598	N.pl3	1	RES1	0.000	
3	  O1	-17.946	5.898	-10.607	O.3	1	RES1	0.000	
4	  C2	-17.053	4.918	-19.655	C.2	1	RES1	0.000	
5	  N2	-17.984	4.600	-18.779	N.2	1	RES1	0.000	
6	  O2	-12.874	9.750	-20.900	O.3	1	RES1	0.000	
7	  C3	-15.673	5.721	-18.085	C.2	1	RES1	0.000	
8	  N3	-15.808	5.468	-19.397	N.2	1	RES1	0.000	
9	  C4	-16.603	5.466	-17.073	C.2	1	RES1	0.000	
10	  N4	-14.731	6.394	-16.140	N.2	1	RES1	0.000	
11	  C5	-15.942	5.928	-15.913	C.2	1	RES1	0.000	
12	  N5	-14.593	6.279	-17.478	N.2	1	RES1	0.000	
13	  C6	-16.479	5.940	-14.514	C.2	1	RES1	0.000	
14	  N6	-12.050	8.599	-19.027	N.3	1	RES1	0.000	
15	  C7	-16.864	4.762	-13.904	C.2	1	RES1	0.000	
16	  C8	-17.326	4.743	-12.603	C.2	1	RES1	0.000	
17	  C9	-17.471	5.964	-11.942	C.2	1	RES1	0.000	
18	 C10	-19.002	6.765	-10.291	C.2	1	RES1	0.000	
19	 C11	-20.011	7.114	-11.198	C.2	1	RES1	0.000	
20	 C12	-21.054	7.938	-10.798	C.2	1	RES1	0.000	
21	 C13	-21.096	8.407	-9.474	C.2	1	RES1	0.000	
22	 C14	-20.136	8.046	-8.559	C.2	1	RES1	0.000	
23	 C15	-19.092	7.198	-8.981	C.2	1	RES1	0.000	
24	 C16	-17.056	7.140	-12.503	C.2	1	RES1	0.000	
25	 C17	-16.536	7.152	-13.817	C.2	1	RES1	0.000	
26	 C18	-13.327	6.693	-18.120	C.3	1	RES1	0.000	
27	 C19	-12.098	6.287	-17.312	C.3	1	RES1	0.000	
28	 C20	-10.839	6.743	-18.005	C.3	1	RES1	0.000	
29	 C21	-10.851	8.225	-18.288	C.3	1	RES1	0.000	
30	 C22	-11.902	9.387	-20.205	C.3	1	RES1	0.000	
31	 C23	-10.541	9.773	-20.595	C.3	1	RES1	0.000	
32	 C24	-9.991	10.915	-20.112	C.3	1	RES1	0.000	
33	 C50	-13.321	8.184	-18.461	C.3	1	RES1	0.000	
@<TRIPOS>BOND
1 1 2 1
2 1 5 ar
3 1 9 ar
4 3 17 1
5 3 18 1
6 4 5 ar
7 4 8 ar
8 6 30 1
9 7 9 ar
10 7 12 ar
11 7 8 ar
12 9 11 ar
13 10 11 ar
14 10 12 ar
15 11 13 1
16 13 15 ar
17 15 16 ar
18 16 17 ar
19 18 19 ar
20 18 23 ar
21 19 20 ar
22 20 21 ar
23 21 22 ar
24 22 23 ar
25 17 24 ar
26 24 25 ar
27 13 25 ar
28 12 26 1
29 26 27 1
30 26 33 1
31 27 28 1
32 28 29 1
33 14 29 1
34 14 30 1
35 30 31 1
36 31 32 1
37 14 33 1
@<TRIPOS>SUBSTRUCTURE
1	RES1	1	GROUP	1 ****	RES
