# created with PyMOL 2.5.2
@<TRIPOS>MOLECULE
BTK_5P9J_TargetProtein
34 38 1                 
SMALL
USER_CHARGES
@<TRIPOS>ATOM
1	  C1	24.800	12.004	-0.803	C.3	1	RES1	0.000	
2	  N1	24.690	13.133	-0.579	N.3	1	RES1	0.000	
3	  C2	24.983	10.601	-1.129	C.3	1	RES1	0.000	
4	  N4	23.539	9.190	0.289	N.pl3	1	RES1	0.000	
5	  N5	21.200	6.698	1.879	N.2	1	RES1	0.000	
6	  N6	20.913	6.837	3.170	N.2	1	RES1	0.000	
7	  N7	16.961	4.754	2.410	N.pl3	1	RES1	0.000	
8	  N8	17.995	4.812	0.313	N.2	1	RES1	0.000	
9	  N9	20.163	5.790	-0.132	N.2	1	RES1	0.000	
10	 O11	22.905	9.671	-1.873	O.2	1	RES1	0.000	
11	 O12	17.458	5.755	8.500	O.3	1	RES1	0.000	
12	 C28	23.732	9.776	-0.937	C.2	1	RES1	0.000	
13	 C29	24.667	9.137	1.263	C.3	1	RES1	0.000	
14	 C30	24.873	7.733	1.785	C.3	1	RES1	0.000	
15	 C31	23.603	7.125	2.348	C.3	1	RES1	0.000	
16	 C32	22.441	7.246	1.337	C.3	1	RES1	0.000	
17	 C33	19.739	6.224	3.344	C.2	1	RES1	0.000	
18	 C34	19.151	6.131	4.701	C.2	1	RES1	0.000	
19	 C35	19.013	7.272	5.499	C.2	1	RES1	0.000	
20	 C36	18.458	7.164	6.770	C.2	1	RES1	0.000	
21	 C37	17.995	5.920	7.237	C.2	1	RES1	0.000	
22	 C38	16.521	6.727	8.947	C.2	1	RES1	0.000	
23	 C39	15.476	7.196	8.098	C.2	1	RES1	0.000	
24	 C40	14.588	8.129	8.600	C.2	1	RES1	0.000	
25	 C41	14.704	8.585	9.916	C.2	1	RES1	0.000	
26	 C42	15.725	8.113	10.725	C.2	1	RES1	0.000	
27	 C43	16.622	7.174	10.230	C.2	1	RES1	0.000	
28	 C44	18.139	4.784	6.440	C.2	1	RES1	0.000	
29	 C45	18.701	4.877	5.163	C.2	1	RES1	0.000	
30	 C46	19.202	5.766	2.111	C.2	1	RES1	0.000	
31	 C47	18.056	5.104	1.622	C.2	1	RES1	0.000	
32	 C48	19.032	5.154	-0.487	C.2	1	RES1	0.000	
33	 C49	20.189	6.068	1.201	C.2	1	RES1	0.000	
34	 C50	22.279	8.657	0.815	C.3	1	RES1	0.000	
@<TRIPOS>BOND
1 1 3 1
2 1 2 1
3 3 12 1
4 4 34 1
5 5 6 ar
6 10 12 2
7 11 21 1
8 11 22 1
9 4 12 1
10 4 13 1
11 13 14 1
12 14 15 1
13 15 16 1
14 5 16 1
15 16 34 1
16 6 17 ar
17 17 18 1
18 17 30 ar
19 18 19 ar
20 18 29 ar
21 19 20 ar
22 20 21 ar
23 21 28 ar
24 22 23 ar
25 22 27 ar
26 23 24 ar
27 24 25 ar
28 25 26 ar
29 26 27 ar
30 28 29 ar
31 30 31 ar
32 30 33 ar
33 7 31 1
34 8 31 ar
35 8 32 ar
36 9 32 ar
37 5 33 ar
38 9 33 ar
@<TRIPOS>SUBSTRUCTURE
1	RES1	1	GROUP	1 ****	RES
