# created with PyMOL 2.5.2
@<TRIPOS>MOLECULE
BTK_5P9J_TargetProtein
34 38 1                 
SMALL
USER_CHARGES
@<TRIPOS>ATOM
1	  C1	24.821	11.968	-0.848	C.3	1	RES1	0.000	
2	  N1	24.784	13.084	-0.568	N.3	1	RES1	0.000	
3	  C2	24.951	10.553	-1.213	C.3	1	RES1	0.000	
4	  N4	23.524	9.223	0.331	N.3	1	RES1	0.000	
5	  N5	21.181	6.744	1.966	N.2	1	RES1	0.000	
6	  N6	20.993	6.710	3.271	N.2	1	RES1	0.000	
7	  N7	17.054	4.614	2.504	N.pl3	1	RES1	0.000	
8	  N8	17.937	4.968	0.342	N.2	1	RES1	0.000	
9	  N9	20.042	6.026	-0.110	N.2	1	RES1	0.000	
10	 O10	22.783	9.700	-1.809	O.3	1	RES1	0.000	
11	 O11	17.454	5.701	8.577	O.3	1	RES1	0.000	
12	 C29	23.665	9.788	-0.941	C.3	1	RES1	0.000	
13	 C30	24.680	9.123	1.226	C.3	1	RES1	0.000	
14	 C31	24.901	7.701	1.713	C.3	1	RES1	0.000	
15	 C32	23.625	7.147	2.332	C.3	1	RES1	0.000	
16	 C33	22.398	7.294	1.418	C.3	1	RES1	0.000	
17	 C34	19.792	6.146	3.436	C.2	1	RES1	0.000	
18	 C35	19.197	5.995	4.760	C.2	1	RES1	0.000	
19	 C36	18.792	4.741	5.240	C.2	1	RES1	0.000	
20	 C37	18.227	4.629	6.497	C.2	1	RES1	0.000	
21	 C38	17.990	5.763	7.283	C.2	1	RES1	0.000	
22	 C39	16.521	6.679	8.903	C.2	1	RES1	0.000	
23	 C40	15.499	7.091	8.010	C.2	1	RES1	0.000	
24	 C41	14.624	8.102	8.366	C.2	1	RES1	0.000	
25	 C42	14.746	8.734	9.610	C.2	1	RES1	0.000	
26	 C43	15.781	8.359	10.466	C.2	1	RES1	0.000	
27	 C44	16.683	7.330	10.114	C.2	1	RES1	0.000	
28	 C45	18.383	7.009	6.821	C.2	1	RES1	0.000	
29	 C46	18.954	7.134	5.543	C.2	1	RES1	0.000	
30	 C47	19.201	5.755	2.167	C.2	1	RES1	0.000	
31	 C48	18.060	5.129	1.685	C.2	1	RES1	0.000	
32	 C49	18.908	5.419	-0.457	C.2	1	RES1	0.000	
33	 C50	20.141	6.158	1.247	C.2	1	RES1	0.000	
34	 C51	22.273	8.721	0.902	C.3	1	RES1	0.000	
@<TRIPOS>BOND
1 1 3 1
2 1 2 1
3 3 12 1
4 4 34 1
5 5 6 ar
6 5 33 ar
7 10 12 1
8 11 21 1
9 11 22 1
10 4 12 1
11 4 13 1
12 13 14 1
13 14 15 1
14 15 16 1
15 5 16 1
16 16 34 1
17 6 17 ar
18 17 18 1
19 17 30 ar
20 18 19 ar
21 18 29 ar
22 19 20 ar
23 20 21 ar
24 21 28 ar
25 22 23 ar
26 22 27 ar
27 23 24 ar
28 24 25 ar
29 25 26 ar
30 26 27 ar
31 28 29 ar
32 30 31 ar
33 30 33 ar
34 7 31 1
35 8 31 ar
36 8 32 ar
37 9 32 ar
38 9 33 ar
@<TRIPOS>SUBSTRUCTURE
1	RES1	1	GROUP	1 ****	RES
