# created with PyMOL 2.5.2
@<TRIPOS>MOLECULE
BTK_5P9J_TargetProtein
34 38 1                 
SMALL
USER_CHARGES
@<TRIPOS>ATOM
1	  N1	24.677	13.063	-0.537	N.3	1	RES1	0.000	
2	  O1	22.698	9.610	-1.697	O.3	1	RES1	0.000	
3	  N2	23.562	9.220	0.382	N.3	1	RES1	0.000	
4	  O2	17.445	5.750	8.550	O.3	1	RES1	0.000	
5	  N3	21.213	6.708	1.904	N.2	1	RES1	0.000	
6	  N4	20.955	6.762	3.236	N.2	1	RES1	0.000	
7	  C5	24.879	10.556	-1.270	C.3	1	RES1	0.000	
8	  N5	16.947	4.823	2.416	N.pl3	1	RES1	0.000	
9	  C6	24.742	11.946	-0.834	C.3	1	RES1	0.000	
10	  N6	17.994	4.917	0.301	N.2	1	RES1	0.000	
11	  C7	23.619	9.738	-0.925	C.3	1	RES1	0.000	
12	  N7	20.176	5.890	-0.149	N.2	1	RES1	0.000	
13	  C8	24.697	9.157	1.339	C.3	1	RES1	0.000	
14	  C9	24.909	7.696	1.818	C.3	1	RES1	0.000	
15	 C10	23.619	7.118	2.375	C.3	1	RES1	0.000	
16	 C11	22.472	7.241	1.377	C.3	1	RES1	0.000	
17	 C12	19.737	6.187	3.380	C.2	1	RES1	0.000	
18	 C13	19.156	6.068	4.694	C.2	1	RES1	0.000	
19	 C14	18.810	4.817	5.197	C.2	1	RES1	0.000	
20	 C15	18.255	4.687	6.462	C.2	1	RES1	0.000	
21	 C16	18.034	5.828	7.259	C.2	1	RES1	0.000	
22	 C17	16.541	6.731	8.897	C.2	1	RES1	0.000	
23	 C18	15.664	7.326	7.948	C.2	1	RES1	0.000	
24	 C19	14.759	8.308	8.420	C.2	1	RES1	0.000	
25	 C20	14.719	8.659	9.759	C.2	1	RES1	0.000	
26	 C21	15.554	8.042	10.654	C.2	1	RES1	0.000	
27	 C22	16.472	7.075	10.227	C.2	1	RES1	0.000	
28	 C23	18.413	7.079	6.771	C.2	1	RES1	0.000	
29	 C24	18.940	7.201	5.499	C.2	1	RES1	0.000	
30	 C25	19.220	5.804	2.116	C.2	1	RES1	0.000	
31	 C26	18.042	5.157	1.618	C.2	1	RES1	0.000	
32	 C27	19.022	5.281	-0.487	C.2	1	RES1	0.000	
33	 C28	20.208	6.096	1.216	C.2	1	RES1	0.000	
34	 C29	22.303	8.679	0.901	C.3	1	RES1	0.000	
@<TRIPOS>BOND
1 1 9 1
2 2 11 1
3 3 11 1
4 3 13 1
5 3 34 1
6 5 6 ar
7 7 9 1
8 7 11 1
9 13 14 1
10 14 15 1
11 15 16 1
12 5 16 1
13 16 34 1
14 6 17 ar
15 17 18 1
16 17 30 ar
17 18 19 ar
18 18 29 ar
19 19 20 ar
20 20 21 ar
21 4 21 1
22 21 28 ar
23 4 22 1
24 22 23 ar
25 22 27 ar
26 23 24 ar
27 24 25 ar
28 25 26 ar
29 26 27 ar
30 28 29 ar
31 30 31 ar
32 30 33 ar
33 8 31 1
34 10 31 ar
35 10 32 ar
36 12 32 ar
37 5 33 ar
38 12 33 ar
@<TRIPOS>SUBSTRUCTURE
1	RES1	1	GROUP	1 ****	RES
