# created with PyMOL 2.5.2
@<TRIPOS>MOLECULE
BTK_5P9J_TargetProtein
34 38 1                 
SMALL
USER_CHARGES
@<TRIPOS>ATOM
1	  C1	24.809	11.890	-0.885	C.3	1	RES1	0.000	
2	  N1	24.774	13.016	-0.552	N.3	1	RES1	0.000	
3	  C2	24.893	10.510	-1.333	C.3	1	RES1	0.000	
4	  N4	23.591	9.215	0.346	N.pl3	1	RES1	0.000	
5	  N5	21.213	6.734	1.883	N.2	1	RES1	0.000	
6	  N6	20.957	6.827	3.223	N.2	1	RES1	0.000	
7	  N7	16.964	4.839	2.396	N.pl3	1	RES1	0.000	
8	  N8	18.017	4.900	0.299	N.2	1	RES1	0.000	
9	  N9	20.177	5.852	-0.124	N.2	1	RES1	0.000	
10	 O10	22.712	9.591	-1.750	O.2	1	RES1	0.000	
11	 O11	17.435	5.764	8.512	O.3	1	RES1	0.000	
12	 C26	23.630	9.716	-0.967	C.2	1	RES1	0.000	
13	 C27	24.703	9.132	1.281	C.3	1	RES1	0.000	
14	 C28	24.899	7.721	1.780	C.3	1	RES1	0.000	
15	 C29	23.641	7.131	2.380	C.3	1	RES1	0.000	
16	 C30	22.471	7.248	1.362	C.3	1	RES1	0.000	
17	 C31	19.755	6.217	3.358	C.2	1	RES1	0.000	
18	 C32	19.163	6.128	4.685	C.2	1	RES1	0.000	
19	 C33	18.784	4.869	5.190	C.2	1	RES1	0.000	
20	 C34	18.206	4.762	6.473	C.2	1	RES1	0.000	
21	 C35	17.976	5.917	7.246	C.2	1	RES1	0.000	
22	 C36	16.514	6.718	8.921	C.2	1	RES1	0.000	
23	 C37	15.469	7.163	8.087	C.2	1	RES1	0.000	
24	 C38	14.566	8.103	8.588	C.2	1	RES1	0.000	
25	 C39	14.673	8.566	9.900	C.2	1	RES1	0.000	
26	 C40	15.681	8.086	10.728	C.2	1	RES1	0.000	
27	 C41	16.599	7.133	10.255	C.2	1	RES1	0.000	
28	 C42	18.403	7.176	6.737	C.2	1	RES1	0.000	
29	 C43	18.957	7.262	5.467	C.2	1	RES1	0.000	
30	 C44	19.225	5.802	2.116	C.2	1	RES1	0.000	
31	 C45	18.077	5.162	1.612	C.2	1	RES1	0.000	
32	 C46	19.059	5.225	-0.485	C.2	1	RES1	0.000	
33	 C47	20.233	6.121	1.206	C.2	1	RES1	0.000	
34	 C48	22.333	8.672	0.869	C.3	1	RES1	0.000	
@<TRIPOS>BOND
1 1 3 1
2 1 2 1
3 3 12 1
4 4 34 1
5 5 6 ar
6 10 12 2
7 11 21 1
8 11 22 1
9 4 12 1
10 4 13 1
11 13 14 1
12 14 15 1
13 15 16 1
14 5 16 1
15 16 34 1
16 6 17 ar
17 17 18 1
18 17 30 ar
19 18 19 ar
20 18 29 ar
21 19 20 ar
22 20 21 ar
23 21 28 ar
24 22 23 ar
25 22 27 ar
26 23 24 ar
27 24 25 ar
28 25 26 ar
29 26 27 ar
30 28 29 ar
31 30 31 ar
32 30 33 ar
33 7 31 1
34 8 31 ar
35 8 32 ar
36 9 32 ar
37 5 33 ar
38 9 33 ar
@<TRIPOS>SUBSTRUCTURE
1	RES1	1	GROUP	1 ****	RES
