# created with PyMOL 2.5.2
@<TRIPOS>MOLECULE
BRD4_6C7R_TargetProtein
35 40 1                 
SMALL
USER_CHARGES
@<TRIPOS>ATOM
1	  C1	-2.397	9.058	26.520	C.3	1	RES1	0.000	
2	  N1	-1.841	8.449	24.172	N.2	1	RES1	0.000	
3	  O1	4.921	6.862	26.760	O.2	1	RES1	0.000	
4	  C2	-2.595	8.096	25.367	C.3	1	RES1	0.000	
5	  N2	-2.523	9.042	23.146	N.2	1	RES1	0.000	
6	  C3	-1.564	9.245	22.208	C.2	1	RES1	0.000	
7	  N3	0.340	7.724	24.876	N.pl3	1	RES1	0.000	
8	  C4	-1.871	9.864	20.866	C.3	1	RES1	0.000	
9	  N4	2.522	6.820	25.365	N.2	1	RES1	0.000	
10	  C5	-2.915	10.961	20.773	C.3	1	RES1	0.000	
11	  C6	-3.218	9.623	20.232	C.3	1	RES1	0.000	
12	  O6	-3.101	5.378	21.043	O.3	1	RES1	0.000	
13	  C7	-0.298	8.773	22.679	C.2	1	RES1	0.000	
14	  O7	-2.398	2.217	17.797	O.2	1	RES1	0.000	
15	  C8	-0.478	8.281	23.935	C.2	1	RES1	0.000	
16	  C9	1.356	6.761	24.655	C.2	1	RES1	0.000	
17	  N9	3.447	4.871	24.244	N.2	1	RES1	0.000	
18	 C10	3.484	5.887	25.115	C.2	1	RES1	0.000	
19	 N10	-3.426	1.829	18.657	N.2	1	RES1	0.000	
20	 C11	4.738	5.993	25.923	C.2	1	RES1	0.000	
21	 N11	1.979	3.944	22.590	N.2	1	RES1	0.000	
22	 C27	2.308	4.864	23.548	C.2	1	RES1	0.000	
23	 C28	1.201	5.746	23.690	C.2	1	RES1	0.000	
24	 C29	0.211	5.301	22.771	C.2	1	RES1	0.000	
25	 C30	-1.089	5.699	22.419	C.2	1	RES1	0.000	
26	 C31	-1.820	5.023	21.452	C.2	1	RES1	0.000	
27	 C32	-3.768	6.382	21.806	C.3	1	RES1	0.000	
28	 C33	-1.253	3.916	20.768	C.2	1	RES1	0.000	
29	 C34	-1.951	3.169	19.737	C.2	1	RES1	0.000	
30	 C35	-1.505	2.976	18.460	C.2	1	RES1	0.000	
31	 C36	-0.356	3.472	17.681	C.3	1	RES1	0.000	
32	 C37	-3.146	2.403	19.840	C.2	1	RES1	0.000	
33	 C38	-4.050	2.198	21.010	C.3	1	RES1	0.000	
34	 C39	0.029	3.498	21.122	C.2	1	RES1	0.000	
35	 C40	0.747	4.187	22.120	C.2	1	RES1	0.000	
@<TRIPOS>BOND
1 1 4 1
2 2 4 1
3 2 5 ar
4 2 15 ar
5 3 20 2
6 5 6 ar
7 6 8 1
8 6 13 ar
9 7 15 1
10 7 16 1
11 8 10 1
12 8 11 1
13 9 16 ar
14 10 11 1
15 13 15 ar
16 9 18 ar
17 17 18 ar
18 18 20 1
19 14 19 ar
20 19 32 ar
21 21 22 ar
22 21 35 ar
23 17 22 ar
24 22 23 ar
25 16 23 ar
26 23 24 ar
27 24 25 ar
28 24 35 ar
29 25 26 ar
30 12 26 1
31 26 28 ar
32 12 27 1
33 28 29 1
34 28 34 ar
35 29 30 ar
36 29 32 ar
37 14 30 ar
38 30 31 1
39 32 33 1
40 34 35 ar
@<TRIPOS>SUBSTRUCTURE
1	RES1	1	GROUP	1 ****	RES
