# created with PyMOL 2.5.2
@<TRIPOS>MOLECULE
BTK_5P9J_TargetProtein
34 38 1                 
SMALL
USER_CHARGES
@<TRIPOS>ATOM
1	  C1	24.765	12.058	-0.802	C.2	1	RES1	0.000	
2	  N1	24.610	13.168	-0.595	N.2	1	RES1	0.000	
3	  C2	24.970	10.631	-1.062	C.3	1	RES1	0.000	
4	  N4	23.522	9.188	0.318	N.pl3	1	RES1	0.000	
5	  N5	21.179	6.688	1.885	N.2	1	RES1	0.000	
6	  N6	20.925	6.791	3.199	N.2	1	RES1	0.000	
7	  N7	16.959	4.770	2.466	N.pl3	1	RES1	0.000	
8	  N8	17.936	4.861	0.339	N.2	1	RES1	0.000	
9	  N9	20.103	5.846	-0.119	N.2	1	RES1	0.000	
10	  O9	22.908	9.721	-1.830	O.2	1	RES1	0.000	
11	 O10	17.516	5.775	8.597	O.3	1	RES1	0.000	
12	 C24	23.719	9.815	-0.922	C.2	1	RES1	0.000	
13	 C25	24.651	9.124	1.286	C.3	1	RES1	0.000	
14	 C26	24.858	7.688	1.770	C.3	1	RES1	0.000	
15	 C27	23.559	7.099	2.345	C.3	1	RES1	0.000	
16	 C28	22.410	7.230	1.344	C.3	1	RES1	0.000	
17	 C29	19.741	6.206	3.382	C.2	1	RES1	0.000	
18	 C30	19.155	6.071	4.738	C.2	1	RES1	0.000	
19	 C31	19.013	7.210	5.550	C.2	1	RES1	0.000	
20	 C32	18.485	7.076	6.805	C.2	1	RES1	0.000	
21	 C33	18.088	5.825	7.292	C.2	1	RES1	0.000	
22	 C34	16.578	6.772	8.891	C.2	1	RES1	0.000	
23	 C35	15.698	7.290	7.920	C.2	1	RES1	0.000	
24	 C36	14.759	8.223	8.323	C.2	1	RES1	0.000	
25	 C37	14.681	8.638	9.656	C.2	1	RES1	0.000	
26	 C38	15.533	8.078	10.596	C.2	1	RES1	0.000	
27	 C39	16.477	7.163	10.247	C.2	1	RES1	0.000	
28	 C40	18.208	4.688	6.486	C.2	1	RES1	0.000	
29	 C41	18.773	4.810	5.211	C.2	1	RES1	0.000	
30	 C42	19.192	5.746	2.147	C.2	1	RES1	0.000	
31	 C43	18.035	5.123	1.663	C.2	1	RES1	0.000	
32	 C44	18.972	5.229	-0.448	C.2	1	RES1	0.000	
33	 C45	20.149	6.068	1.221	C.2	1	RES1	0.000	
34	 C46	22.268	8.654	0.860	C.3	1	RES1	0.000	
@<TRIPOS>BOND
1 1 3 1
2 1 2 2
3 3 12 1
4 4 34 1
5 5 6 ar
6 11 21 1
7 11 22 1
8 4 12 1
9 10 12 2
10 4 13 1
11 13 14 1
12 14 15 1
13 15 16 1
14 5 16 1
15 16 34 1
16 6 17 ar
17 17 18 1
18 17 30 ar
19 18 19 ar
20 18 29 ar
21 19 20 ar
22 20 21 ar
23 21 28 ar
24 22 23 ar
25 22 27 ar
26 23 24 ar
27 24 25 ar
28 25 26 ar
29 26 27 ar
30 28 29 ar
31 30 31 ar
32 30 33 ar
33 7 31 1
34 8 31 ar
35 8 32 ar
36 9 32 ar
37 5 33 ar
38 9 33 ar
@<TRIPOS>SUBSTRUCTURE
1	RES1	1	GROUP	1 ****	RES
