# created with PyMOL 2.5.2
@<TRIPOS>MOLECULE
BTK_5P9J_TargetProtein
34 38 1                 
SMALL
USER_CHARGES
@<TRIPOS>ATOM
1	  C1	24.851	11.960	-0.858	C.3	1	RES1	0.000	
2	  N1	24.730	13.054	-0.512	N.3	1	RES1	0.000	
3	  C2	25.018	10.571	-1.234	C.3	1	RES1	0.000	
4	  N8	23.548	9.199	0.320	N.pl3	1	RES1	0.000	
5	  N9	21.194	6.714	1.880	N.2	1	RES1	0.000	
6	 N10	20.974	6.744	3.229	N.2	1	RES1	0.000	
7	 N11	17.045	4.610	2.490	N.pl3	1	RES1	0.000	
8	 O11	22.893	9.713	-1.860	O.2	1	RES1	0.000	
9	 N12	17.955	4.855	0.329	N.2	1	RES1	0.000	
10	 O12	17.443	5.760	8.511	O.3	1	RES1	0.000	
11	 N13	20.113	5.890	-0.115	N.2	1	RES1	0.000	
12	 C32	23.742	9.788	-0.978	C.2	1	RES1	0.000	
13	 C33	24.682	9.118	1.231	C.3	1	RES1	0.000	
14	 C34	24.871	7.701	1.742	C.3	1	RES1	0.000	
15	 C35	23.604	7.112	2.337	C.3	1	RES1	0.000	
16	 C36	22.449	7.234	1.330	C.3	1	RES1	0.000	
17	 C37	19.750	6.219	3.382	C.2	1	RES1	0.000	
18	 C38	19.140	6.133	4.693	C.2	1	RES1	0.000	
19	 C39	18.766	4.883	5.219	C.2	1	RES1	0.000	
20	 C40	18.194	4.793	6.494	C.2	1	RES1	0.000	
21	 C41	17.976	5.931	7.233	C.2	1	RES1	0.000	
22	 C42	16.510	6.725	8.927	C.2	1	RES1	0.000	
23	 C43	15.471	7.177	8.097	C.2	1	RES1	0.000	
24	 C44	14.547	8.105	8.584	C.2	1	RES1	0.000	
25	 C45	14.652	8.555	9.897	C.2	1	RES1	0.000	
26	 C46	15.661	8.109	10.724	C.2	1	RES1	0.000	
27	 C47	16.617	7.173	10.240	C.2	1	RES1	0.000	
28	 C48	18.428	7.178	6.763	C.2	1	RES1	0.000	
29	 C49	18.990	7.270	5.462	C.2	1	RES1	0.000	
30	 C50	19.208	5.760	2.112	C.2	1	RES1	0.000	
31	 C51	18.059	5.087	1.644	C.2	1	RES1	0.000	
32	 C52	18.973	5.298	-0.499	C.2	1	RES1	0.000	
33	 C53	20.175	6.087	1.194	C.2	1	RES1	0.000	
34	 C54	22.287	8.703	0.834	C.3	1	RES1	0.000	
@<TRIPOS>BOND
1 1 2 1
2 1 3 1
3 3 12 1
4 5 6 ar
5 6 17 ar
6 7 31 1
7 8 12 2
8 9 31 ar
9 9 32 ar
10 10 21 1
11 10 22 1
12 11 32 ar
13 11 33 ar
14 4 12 1
15 4 13 1
16 13 14 1
17 14 15 1
18 15 16 1
19 5 16 1
20 16 34 1
21 17 18 1
22 17 30 ar
23 18 19 ar
24 18 29 ar
25 19 20 ar
26 20 21 ar
27 21 28 ar
28 22 23 ar
29 22 27 ar
30 23 24 ar
31 24 25 ar
32 25 26 ar
33 26 27 ar
34 28 29 ar
35 30 31 ar
36 30 33 ar
37 5 33 ar
38 4 34 1
@<TRIPOS>SUBSTRUCTURE
1	RES1	1	GROUP	1 ****	RES
