# created with PyMOL 2.5.2
@<TRIPOS>MOLECULE
BTK_5P9J_TargetProtein
34 38 1                 
SMALL
USER_CHARGES
@<TRIPOS>ATOM
1	  C1	24.682	12.020	-0.789	C.3	1	RES1	0.000	
2	  N1	24.615	13.121	-0.488	N.3	1	RES1	0.000	
3	  C2	24.818	10.609	-1.194	C.3	1	RES1	0.000	
4	  N8	23.548	9.233	0.424	N.3	1	RES1	0.000	
5	  N9	21.183	6.673	1.915	N.2	1	RES1	0.000	
6	 N10	20.956	6.759	3.223	N.2	1	RES1	0.000	
7	 O10	22.674	9.666	-1.645	O.3	1	RES1	0.000	
8	 N11	16.960	4.788	2.399	N.pl3	1	RES1	0.000	
9	 O11	17.480	5.727	8.551	O.3	1	RES1	0.000	
10	 N12	17.983	4.926	0.311	N.2	1	RES1	0.000	
11	 N13	20.149	5.856	-0.131	N.2	1	RES1	0.000	
12	 C30	23.577	9.802	-0.862	C.3	1	RES1	0.000	
13	 C31	24.688	9.127	1.363	C.3	1	RES1	0.000	
14	 C32	24.896	7.681	1.793	C.3	1	RES1	0.000	
15	 C33	23.613	7.081	2.378	C.3	1	RES1	0.000	
16	 C34	22.440	7.225	1.364	C.3	1	RES1	0.000	
17	 C35	19.729	6.172	3.371	C.2	1	RES1	0.000	
18	 C36	19.142	6.032	4.712	C.2	1	RES1	0.000	
19	 C37	19.005	7.172	5.517	C.2	1	RES1	0.000	
20	 C38	18.433	7.031	6.796	C.2	1	RES1	0.000	
21	 C39	18.019	5.783	7.242	C.2	1	RES1	0.000	
22	 C40	16.551	6.720	8.892	C.2	1	RES1	0.000	
23	 C41	15.541	7.129	8.006	C.2	1	RES1	0.000	
24	 C42	14.669	8.153	8.398	C.2	1	RES1	0.000	
25	 C43	14.805	8.762	9.639	C.2	1	RES1	0.000	
26	 C44	15.821	8.333	10.508	C.2	1	RES1	0.000	
27	 C45	16.709	7.316	10.128	C.2	1	RES1	0.000	
28	 C46	18.208	4.660	6.457	C.2	1	RES1	0.000	
29	 C47	18.768	4.789	5.188	C.2	1	RES1	0.000	
30	 C48	19.207	5.755	2.131	C.2	1	RES1	0.000	
31	 C49	18.049	5.156	1.624	C.2	1	RES1	0.000	
32	 C50	19.007	5.248	-0.486	C.2	1	RES1	0.000	
33	 C51	20.181	6.077	1.211	C.2	1	RES1	0.000	
34	 C52	22.292	8.696	0.919	C.3	1	RES1	0.000	
@<TRIPOS>BOND
1 1 2 1
2 1 3 1
3 3 12 1
4 5 6 ar
5 6 17 ar
6 7 12 1
7 8 31 1
8 9 21 1
9 9 22 1
10 10 31 ar
11 10 32 ar
12 11 32 ar
13 11 33 ar
14 4 12 1
15 4 13 1
16 13 14 1
17 14 15 1
18 15 16 1
19 5 16 1
20 16 34 1
21 17 18 1
22 17 30 ar
23 18 19 ar
24 18 29 ar
25 19 20 ar
26 20 21 ar
27 21 28 ar
28 22 23 ar
29 22 27 ar
30 23 24 ar
31 24 25 ar
32 25 26 ar
33 26 27 ar
34 28 29 ar
35 30 31 ar
36 30 33 ar
37 5 33 ar
38 4 34 1
@<TRIPOS>SUBSTRUCTURE
1	RES1	1	GROUP	1 ****	RES
