# created with PyMOL 2.5.2
@<TRIPOS>MOLECULE
BTK_5P9J_TargetProtein
34 38 1                 
SMALL
USER_CHARGES
@<TRIPOS>ATOM
1	  C1	24.721	11.993	-0.814	C.3	1	RES1	0.000	
2	  N1	24.654	13.123	-0.508	N.3	1	RES1	0.000	
3	  C2	24.819	10.584	-1.231	C.3	1	RES1	0.000	
4	  N8	23.533	9.232	0.404	N.3	1	RES1	0.000	
5	  N9	21.203	6.696	1.914	N.2	1	RES1	0.000	
6	  O9	22.665	9.631	-1.688	O.3	1	RES1	0.000	
7	 N10	20.964	6.751	3.264	N.2	1	RES1	0.000	
8	 O10	17.507	5.737	8.568	O.3	1	RES1	0.000	
9	 N11	16.946	4.842	2.449	N.pl3	1	RES1	0.000	
10	 N12	17.954	4.934	0.322	N.2	1	RES1	0.000	
11	 N13	20.124	5.874	-0.104	N.2	1	RES1	0.000	
12	 C28	23.589	9.794	-0.871	C.3	1	RES1	0.000	
13	 C29	24.690	9.126	1.317	C.3	1	RES1	0.000	
14	 C30	24.886	7.687	1.779	C.3	1	RES1	0.000	
15	 C31	23.622	7.086	2.347	C.3	1	RES1	0.000	
16	 C32	22.447	7.208	1.366	C.3	1	RES1	0.000	
17	 C33	19.763	6.188	3.405	C.2	1	RES1	0.000	
18	 C34	19.188	6.050	4.739	C.2	1	RES1	0.000	
19	 C35	19.051	7.172	5.577	C.2	1	RES1	0.000	
20	 C36	18.493	7.037	6.846	C.2	1	RES1	0.000	
21	 C37	18.078	5.774	7.291	C.2	1	RES1	0.000	
22	 C38	16.565	6.751	8.883	C.2	1	RES1	0.000	
23	 C39	15.676	7.280	7.881	C.2	1	RES1	0.000	
24	 C40	14.776	8.262	8.263	C.2	1	RES1	0.000	
25	 C41	14.705	8.693	9.581	C.2	1	RES1	0.000	
26	 C42	15.566	8.134	10.544	C.2	1	RES1	0.000	
27	 C43	16.492	7.177	10.153	C.2	1	RES1	0.000	
28	 C44	18.207	4.653	6.476	C.2	1	RES1	0.000	
29	 C45	18.772	4.798	5.216	C.2	1	RES1	0.000	
30	 C46	19.217	5.754	2.136	C.2	1	RES1	0.000	
31	 C47	18.056	5.178	1.664	C.2	1	RES1	0.000	
32	 C48	19.008	5.290	-0.472	C.2	1	RES1	0.000	
33	 C49	20.214	6.102	1.211	C.2	1	RES1	0.000	
34	 C50	22.286	8.690	0.938	C.3	1	RES1	0.000	
@<TRIPOS>BOND
1 1 2 1
2 1 3 1
3 3 12 1
4 5 7 ar
5 7 17 ar
6 8 21 1
7 8 22 1
8 9 31 1
9 10 31 ar
10 10 32 ar
11 11 32 ar
12 11 33 ar
13 4 12 1
14 6 12 1
15 4 13 1
16 13 14 1
17 14 15 1
18 15 16 1
19 5 16 1
20 16 34 1
21 17 18 1
22 17 30 ar
23 18 19 ar
24 18 29 ar
25 19 20 ar
26 20 21 ar
27 21 28 ar
28 22 23 ar
29 22 27 ar
30 23 24 ar
31 24 25 ar
32 25 26 ar
33 26 27 ar
34 28 29 ar
35 30 31 ar
36 30 33 ar
37 5 33 ar
38 4 34 1
@<TRIPOS>SUBSTRUCTURE
1	RES1	1	GROUP	1 ****	RES
