# created with PyMOL 2.5.2
@<TRIPOS>MOLECULE
BTK_5P9J_TargetProtein
34 38 1                 
SMALL
USER_CHARGES
@<TRIPOS>ATOM
1	  C1	24.649	12.132	-0.761	C.3	1	RES1	0.000	
2	  N1	24.533	13.273	-0.527	N.3	1	RES1	0.000	
3	  C2	24.826	10.700	-1.089	C.3	1	RES1	0.000	
4	  N8	23.563	9.209	0.460	N.3	1	RES1	0.000	
5	  N9	21.198	6.613	1.831	N.2	1	RES1	0.000	
6	 N10	20.980	6.680	3.178	N.2	1	RES1	0.000	
7	 N11	17.057	4.564	2.431	N.pl3	1	RES1	0.000	
8	 N12	18.005	4.811	0.269	N.2	1	RES1	0.000	
9	 N13	20.124	5.807	-0.167	N.2	1	RES1	0.000	
10	 O13	22.684	9.788	-1.620	O.3	1	RES1	0.000	
11	 O14	17.462	5.804	8.479	O.3	1	RES1	0.000	
12	 C36	23.618	9.880	-0.789	C.3	1	RES1	0.000	
13	 C37	24.685	9.082	1.386	C.3	1	RES1	0.000	
14	 C38	24.920	7.612	1.748	C.3	1	RES1	0.000	
15	 C39	23.631	6.995	2.308	C.3	1	RES1	0.000	
16	 C40	22.467	7.172	1.321	C.3	1	RES1	0.000	
17	 C41	19.760	6.135	3.333	C.2	1	RES1	0.000	
18	 C42	19.160	6.070	4.663	C.2	1	RES1	0.000	
19	 C43	19.043	7.233	5.444	C.2	1	RES1	0.000	
20	 C44	18.497	7.159	6.723	C.2	1	RES1	0.000	
21	 C45	18.011	5.939	7.191	C.2	1	RES1	0.000	
22	 C46	16.542	6.795	8.888	C.2	1	RES1	0.000	
23	 C47	15.536	7.274	8.066	C.2	1	RES1	0.000	
24	 C48	14.647	8.249	8.531	C.2	1	RES1	0.000	
25	 C49	14.772	8.693	9.836	C.2	1	RES1	0.000	
26	 C50	15.777	8.221	10.666	C.2	1	RES1	0.000	
27	 C51	16.641	7.240	10.209	C.2	1	RES1	0.000	
28	 C52	18.106	4.773	6.432	C.2	1	RES1	0.000	
29	 C53	18.676	4.881	5.146	C.2	1	RES1	0.000	
30	 C54	19.229	5.697	2.092	C.2	1	RES1	0.000	
31	 C55	18.080	5.024	1.612	C.2	1	RES1	0.000	
32	 C56	18.972	5.197	-0.539	C.2	1	RES1	0.000	
33	 C57	20.173	6.060	1.148	C.2	1	RES1	0.000	
34	 C58	22.288	8.667	0.924	C.3	1	RES1	0.000	
@<TRIPOS>BOND
1 1 3 1
2 1 2 1
3 3 12 1
4 5 6 ar
5 6 17 ar
6 7 31 1
7 8 31 ar
8 8 32 ar
9 9 32 ar
10 9 33 ar
11 10 12 1
12 11 21 1
13 11 22 1
14 4 12 1
15 4 13 1
16 13 14 1
17 14 15 1
18 15 16 1
19 5 16 1
20 16 34 1
21 17 18 1
22 17 30 ar
23 18 19 ar
24 18 29 ar
25 19 20 ar
26 20 21 ar
27 21 28 ar
28 22 23 ar
29 22 27 ar
30 23 24 ar
31 24 25 ar
32 25 26 ar
33 26 27 ar
34 28 29 ar
35 30 31 ar
36 30 33 ar
37 5 33 ar
38 4 34 1
@<TRIPOS>SUBSTRUCTURE
1	RES1	1	GROUP	1 ****	RES
