# created with PyMOL 2.5.2
@<TRIPOS>MOLECULE
KIT_3G0E_TargetProtein
22 24 1                 
SMALL
USER_CHARGES
@<TRIPOS>ATOM
1	  C1	30.435	-1.237	-77.388	C.3	1	RES1	0.000	
2	  N1	33.615	1.730	-76.712	N.pl3	1	RES1	0.000	
3	  O1	31.858	1.739	-78.131	O.2	1	RES1	0.000	
4	  C2	31.917	-1.323	-77.611	C.2	1	RES1	0.000	
5	  C3	32.910	-0.360	-77.713	C.2	1	RES1	0.000	
6	  C4	32.739	1.100	-77.542	C.2	1	RES1	0.000	
7	  N5	33.335	-6.860	-78.429	N.2	1	RES1	0.000	
8	  N6	32.512	-2.524	-77.831	N.2	1	RES1	0.000	
9	  O8	31.998	-5.045	-77.951	O.2	1	RES1	0.000	
10	 C24	34.157	-1.019	-77.992	C.2	1	RES1	0.000	
11	 C25	35.478	-0.390	-78.225	C.3	1	RES1	0.000	
12	 C26	33.855	-2.375	-78.078	C.2	1	RES1	0.000	
13	 C27	34.703	-3.491	-78.394	C.3	1	RES1	0.000	
14	 C28	34.355	-4.816	-78.479	C.2	1	RES1	0.000	
15	 C29	33.075	-5.510	-78.234	C.2	1	RES1	0.000	
16	 C30	34.660	-7.058	-78.750	C.2	1	RES1	0.000	
17	 C31	35.290	-8.278	-79.001	C.2	1	RES1	0.000	
18	 C32	36.652	-8.267	-79.324	C.2	1	RES1	0.000	
19	 C33	37.354	-7.061	-79.385	C.2	1	RES1	0.000	
20	 C34	36.699	-5.844	-79.114	C.2	1	RES1	0.000	
21	 C35	35.363	-5.875	-78.804	C.2	1	RES1	0.000	
22	  F1	38.678	-7.046	-79.695	 F	1	RES1	0.000	
@<TRIPOS>BOND
1 1 4 1
2 2 6 1
3 3 6 2
4 4 5 ar
5 4 8 ar
6 5 6 1
7 5 10 ar
8 10 11 1
9 10 12 ar
10 8 12 ar
11 12 13 1
12 13 14 1
13 14 15 ar
14 14 21 ar
15 7 15 ar
16 9 15 2
17 7 16 ar
18 16 17 ar
19 16 21 ar
20 17 18 ar
21 18 19 ar
22 19 20 ar
23 20 21 ar
24 19 22 1
@<TRIPOS>SUBSTRUCTURE
1	RES1	1	GROUP	1 ****	RES
