# created with PyMOL 2.5.2
@<TRIPOS>MOLECULE
KIT_3G0E_TargetProtein
22 24 1                 
SMALL
USER_CHARGES
@<TRIPOS>ATOM
1	  C1	30.468	-1.231	-77.380	C.3	1	RES1	0.000	
2	  N1	33.611	1.738	-76.693	N.pl3	1	RES1	0.000	
3	  O1	31.862	1.722	-78.114	O.2	1	RES1	0.000	
4	  C2	31.927	-1.292	-77.620	C.2	1	RES1	0.000	
5	  C3	32.926	-0.345	-77.721	C.2	1	RES1	0.000	
6	  C4	32.754	1.087	-77.526	C.2	1	RES1	0.000	
7	  N5	33.353	-6.852	-78.413	N.2	1	RES1	0.000	
8	  N6	32.512	-2.522	-77.819	N.2	1	RES1	0.000	
9	  O8	31.984	-5.044	-77.965	O.2	1	RES1	0.000	
10	 C28	34.142	-1.030	-78.031	C.2	1	RES1	0.000	
11	 C29	35.445	-0.387	-78.239	C.3	1	RES1	0.000	
12	 C30	33.851	-2.393	-78.089	C.2	1	RES1	0.000	
13	 C31	34.665	-3.514	-78.406	C.3	1	RES1	0.000	
14	 C32	34.365	-4.818	-78.461	C.2	1	RES1	0.000	
15	 C33	33.059	-5.538	-78.254	C.2	1	RES1	0.000	
16	 C34	34.666	-7.025	-78.759	C.2	1	RES1	0.000	
17	 C35	35.312	-8.285	-79.001	C.2	1	RES1	0.000	
18	 C36	36.669	-8.271	-79.327	C.2	1	RES1	0.000	
19	 C37	37.339	-7.045	-79.371	C.2	1	RES1	0.000	
20	 C38	36.711	-5.830	-79.108	C.2	1	RES1	0.000	
21	 C39	35.369	-5.872	-78.802	C.2	1	RES1	0.000	
22	  F1	38.648	-7.061	-79.684	 F	1	RES1	0.000	
@<TRIPOS>BOND
1 1 4 1
2 2 6 1
3 3 6 2
4 4 5 ar
5 4 8 ar
6 5 6 1
7 5 10 ar
8 10 11 1
9 10 12 ar
10 8 12 ar
11 12 13 1
12 13 14 1
13 14 15 ar
14 14 21 ar
15 7 15 ar
16 9 15 2
17 7 16 ar
18 16 17 ar
19 16 21 ar
20 17 18 ar
21 18 19 ar
22 19 20 ar
23 20 21 ar
24 19 22 1
@<TRIPOS>SUBSTRUCTURE
1	RES1	1	GROUP	1 ****	RES
