# created with PyMOL 2.5.2
@<TRIPOS>MOLECULE
KIT_3G0E_TargetProtein
22 24 1                 
SMALL
USER_CHARGES
@<TRIPOS>ATOM
1	  C1	30.462	-1.251	-77.364	C.3	1	RES1	0.000	
2	  N1	33.623	1.729	-76.703	N.pl3	1	RES1	0.000	
3	  O1	31.884	1.741	-78.163	O.2	1	RES1	0.000	
4	  C2	31.927	-1.311	-77.610	C.2	1	RES1	0.000	
5	  C3	32.915	-0.350	-77.702	C.2	1	RES1	0.000	
6	  C4	32.742	1.098	-77.548	C.2	1	RES1	0.000	
7	  N5	33.352	-6.863	-78.421	N.2	1	RES1	0.000	
8	  N6	32.520	-2.524	-77.820	N.2	1	RES1	0.000	
9	 O11	31.966	-5.053	-77.956	O.2	1	RES1	0.000	
10	 C30	34.132	-1.037	-78.010	C.2	1	RES1	0.000	
11	 C31	35.452	-0.389	-78.206	C.3	1	RES1	0.000	
12	 C32	33.844	-2.376	-78.085	C.2	1	RES1	0.000	
13	 C33	34.697	-3.511	-78.409	C.3	1	RES1	0.000	
14	 C34	34.347	-4.820	-78.466	C.2	1	RES1	0.000	
15	 C35	33.076	-5.515	-78.241	C.2	1	RES1	0.000	
16	 C36	34.692	-7.066	-78.764	C.2	1	RES1	0.000	
17	 C37	35.292	-8.282	-79.015	C.2	1	RES1	0.000	
18	 C38	36.649	-8.237	-79.307	C.2	1	RES1	0.000	
19	 C39	37.342	-7.056	-79.386	C.2	1	RES1	0.000	
20	 C40	36.727	-5.838	-79.124	C.2	1	RES1	0.000	
21	 C41	35.353	-5.855	-78.804	C.2	1	RES1	0.000	
22	  F1	38.648	-7.045	-79.679	 F	1	RES1	0.000	
@<TRIPOS>BOND
1 1 4 1
2 2 6 1
3 3 6 2
4 4 5 ar
5 4 8 ar
6 5 6 1
7 5 10 ar
8 9 15 2
9 10 11 1
10 10 12 ar
11 8 12 ar
12 12 13 1
13 13 14 1
14 14 15 ar
15 14 21 ar
16 7 15 ar
17 7 16 ar
18 16 17 ar
19 16 21 ar
20 17 18 ar
21 18 19 ar
22 19 20 ar
23 20 21 ar
24 19 22 1
@<TRIPOS>SUBSTRUCTURE
1	RES1	1	GROUP	1 ****	RES
