# created with PyMOL 2.5.2
@<TRIPOS>MOLECULE
KIT_3G0E_TargetProtein
22 24 1                 
SMALL
USER_CHARGES
@<TRIPOS>ATOM
1	  C1	30.429	-1.265	-77.395	C.3	1	RES1	0.000	
2	  N1	33.648	1.707	-76.700	N.pl3	1	RES1	0.000	
3	  O1	31.891	1.744	-78.105	O.2	1	RES1	0.000	
4	  C2	31.917	-1.326	-77.620	C.2	1	RES1	0.000	
5	  C3	32.908	-0.341	-77.713	C.2	1	RES1	0.000	
6	  C4	32.757	1.102	-77.544	C.2	1	RES1	0.000	
7	  N5	33.341	-6.856	-78.418	N.2	1	RES1	0.000	
8	  N6	32.522	-2.532	-77.860	N.2	1	RES1	0.000	
9	  O6	31.988	-5.047	-77.951	O.2	1	RES1	0.000	
10	 C24	34.118	-1.023	-78.015	C.2	1	RES1	0.000	
11	 C25	35.451	-0.378	-78.228	C.3	1	RES1	0.000	
12	 C26	33.851	-2.389	-78.074	C.2	1	RES1	0.000	
13	 C27	34.686	-3.498	-78.411	C.3	1	RES1	0.000	
14	 C28	34.385	-4.824	-78.473	C.2	1	RES1	0.000	
15	 C29	33.071	-5.514	-78.228	C.2	1	RES1	0.000	
16	 C30	34.683	-7.055	-78.756	C.2	1	RES1	0.000	
17	 C31	35.292	-8.277	-78.988	C.2	1	RES1	0.000	
18	 C32	36.659	-8.249	-79.319	C.2	1	RES1	0.000	
19	 C33	37.353	-7.044	-79.372	C.2	1	RES1	0.000	
20	 C34	36.716	-5.829	-79.129	C.2	1	RES1	0.000	
21	 C35	35.332	-5.864	-78.793	C.2	1	RES1	0.000	
22	  F1	38.641	-7.051	-79.689	 F	1	RES1	0.000	
@<TRIPOS>BOND
1 1 4 1
2 2 6 1
3 3 6 2
4 4 5 ar
5 4 8 ar
6 5 6 1
7 5 10 ar
8 10 11 1
9 10 12 ar
10 8 12 ar
11 12 13 1
12 13 14 1
13 14 15 ar
14 14 21 ar
15 7 15 ar
16 9 15 2
17 7 16 ar
18 16 17 ar
19 16 21 ar
20 17 18 ar
21 18 19 ar
22 19 20 ar
23 20 21 ar
24 19 22 1
@<TRIPOS>SUBSTRUCTURE
1	RES1	1	GROUP	1 ****	RES
