# created with PyMOL 2.5.2
@<TRIPOS>MOLECULE
KIT_3G0E_TargetProtein
22 24 1                 
SMALL
USER_CHARGES
@<TRIPOS>ATOM
1	  C1	30.502	-1.270	-77.213	C.3	1	RES1	0.000	
2	  N1	33.631	1.704	-76.687	N.pl3	1	RES1	0.000	
3	  O1	31.806	1.719	-78.001	O.2	1	RES1	0.000	
4	  C2	31.918	-1.316	-77.619	C.2	1	RES1	0.000	
5	  C3	32.927	-0.337	-77.739	C.2	1	RES1	0.000	
6	  C4	32.754	1.096	-77.527	C.2	1	RES1	0.000	
7	  N5	33.334	-6.845	-78.453	N.2	1	RES1	0.000	
8	  N6	32.528	-2.519	-77.891	N.2	1	RES1	0.000	
9	  O6	31.997	-5.016	-77.994	O.2	1	RES1	0.000	
10	 C26	34.110	-1.029	-78.097	C.2	1	RES1	0.000	
11	 C27	35.468	-0.382	-78.336	C.3	1	RES1	0.000	
12	 C28	33.851	-2.373	-78.181	C.2	1	RES1	0.000	
13	 C29	34.703	-3.505	-78.444	C.3	1	RES1	0.000	
14	 C30	34.359	-4.810	-78.471	C.2	1	RES1	0.000	
15	 C31	33.045	-5.508	-78.278	C.2	1	RES1	0.000	
16	 C32	34.683	-7.052	-78.779	C.2	1	RES1	0.000	
17	 C33	35.278	-8.270	-78.993	C.2	1	RES1	0.000	
18	 C34	36.666	-8.263	-79.306	C.2	1	RES1	0.000	
19	 C35	37.345	-7.058	-79.316	C.2	1	RES1	0.000	
20	 C36	36.716	-5.848	-79.052	C.2	1	RES1	0.000	
21	 C37	35.358	-5.860	-78.807	C.2	1	RES1	0.000	
22	  F1	38.662	-7.067	-79.597	 F	1	RES1	0.000	
@<TRIPOS>BOND
1 1 4 1
2 2 6 1
3 3 6 2
4 4 5 ar
5 4 8 ar
6 5 6 1
7 5 10 ar
8 10 11 1
9 10 12 ar
10 8 12 ar
11 12 13 1
12 13 14 1
13 14 15 ar
14 14 21 ar
15 7 15 ar
16 9 15 2
17 7 16 ar
18 16 17 ar
19 16 21 ar
20 17 18 ar
21 18 19 ar
22 19 20 ar
23 20 21 ar
24 19 22 1
@<TRIPOS>SUBSTRUCTURE
1	RES1	1	GROUP	1 ****	RES
