# created with PyMOL 2.5.2
@<TRIPOS>MOLECULE
BRD2_4ALH_TargetProtein
35 40 1                 
SMALL
USER_CHARGES
@<TRIPOS>ATOM
1	  C1	-3.033	6.622	25.438	C.3	1	RES1	0.000	
2	  N1	-1.866	8.433	24.222	N.2	1	RES1	0.000	
3	  O1	5.692	5.307	25.840	O.3	1	RES1	0.000	
4	  C2	-2.570	8.060	25.435	C.3	1	RES1	0.000	
5	  N2	-2.550	8.993	23.213	N.2	1	RES1	0.000	
6	  C3	-1.641	9.233	22.278	C.2	1	RES1	0.000	
7	  N3	0.364	7.718	24.849	N.pl3	1	RES1	0.000	
8	  C4	-1.925	9.840	20.903	C.3	1	RES1	0.000	
9	  N4	2.538	6.840	25.333	N.2	1	RES1	0.000	
10	  C5	-2.980	10.951	20.821	C.3	1	RES1	0.000	
11	  C6	-3.265	9.598	20.263	C.3	1	RES1	0.000	
12	  O6	-3.025	5.421	20.954	O.3	1	RES1	0.000	
13	  C7	-0.343	8.798	22.665	C.2	1	RES1	0.000	
14	  O7	-2.412	2.181	17.797	O.2	1	RES1	0.000	
15	  C8	-0.504	8.279	23.952	C.2	1	RES1	0.000	
16	  N8	3.453	4.889	24.249	N.2	1	RES1	0.000	
17	  C9	1.387	6.767	24.613	C.2	1	RES1	0.000	
18	  N9	-3.526	1.911	18.657	N.2	1	RES1	0.000	
19	 C10	3.510	5.925	25.120	C.2	1	RES1	0.000	
20	 N10	2.009	3.905	22.634	N.2	1	RES1	0.000	
21	 C11	4.725	6.066	25.921	C.3	1	RES1	0.000	
22	 C31	2.307	4.860	23.579	C.2	1	RES1	0.000	
23	 C32	1.244	5.741	23.686	C.2	1	RES1	0.000	
24	 C33	0.236	5.291	22.738	C.2	1	RES1	0.000	
25	 C34	-1.039	5.723	22.346	C.2	1	RES1	0.000	
26	 C35	-1.756	4.999	21.385	C.2	1	RES1	0.000	
27	 C36	-3.673	6.474	21.644	C.3	1	RES1	0.000	
28	 C37	-1.205	3.873	20.798	C.2	1	RES1	0.000	
29	 C38	-1.961	3.126	19.767	C.2	1	RES1	0.000	
30	 C39	-1.496	2.918	18.489	C.2	1	RES1	0.000	
31	 C40	-0.271	3.281	17.712	C.3	1	RES1	0.000	
32	 C41	-3.209	2.507	19.818	C.2	1	RES1	0.000	
33	 C42	-4.164	2.413	20.955	C.3	1	RES1	0.000	
34	 C43	0.050	3.417	21.138	C.2	1	RES1	0.000	
35	 C44	0.755	4.157	22.131	C.2	1	RES1	0.000	
@<TRIPOS>BOND
1 1 4 1
2 2 4 1
3 2 5 ar
4 2 15 ar
5 3 21 1
6 5 6 ar
7 6 8 1
8 6 13 ar
9 7 15 1
10 7 17 1
11 8 10 1
12 8 11 1
13 9 17 ar
14 10 11 1
15 13 15 ar
16 14 18 ar
17 9 19 ar
18 16 19 ar
19 19 21 1
20 20 22 ar
21 20 35 ar
22 16 22 ar
23 22 23 ar
24 17 23 ar
25 23 24 ar
26 24 25 ar
27 24 35 ar
28 25 26 ar
29 12 26 1
30 26 28 ar
31 12 27 1
32 28 29 1
33 28 34 ar
34 29 30 ar
35 29 32 ar
36 14 30 ar
37 30 31 1
38 18 32 ar
39 32 33 1
40 34 35 ar
@<TRIPOS>SUBSTRUCTURE
1	RES1	1	GROUP	1 ****	RES
