# created with PyMOL 2.5.2
@<TRIPOS>MOLECULE
KIT_3G0E_TargetProtein
22 24 1                 
SMALL
USER_CHARGES
@<TRIPOS>ATOM
1	  N5	33.700	1.688	-76.714	N.pl3	1	RES1	0.000	
2	  O5	31.848	1.749	-77.998	O.2	1	RES1	0.000	
3	  N6	32.489	-2.530	-77.897	N.2	1	RES1	0.000	
4	  O6	32.003	-5.040	-77.979	O.2	1	RES1	0.000	
5	  N7	33.346	-6.867	-78.451	N.2	1	RES1	0.000	
6	 C26	32.750	1.093	-77.543	C.2	1	RES1	0.000	
7	 C27	32.902	-0.336	-77.759	C.2	1	RES1	0.000	
8	 C28	31.920	-1.319	-77.605	C.2	1	RES1	0.000	
9	 C29	30.477	-1.266	-77.235	C.3	1	RES1	0.000	
10	 C30	33.837	-2.367	-78.165	C.2	1	RES1	0.000	
11	 C31	34.669	-3.498	-78.430	C.3	1	RES1	0.000	
12	 C32	34.382	-4.821	-78.470	C.2	1	RES1	0.000	
13	 C33	33.063	-5.518	-78.278	C.2	1	RES1	0.000	
14	 C34	34.682	-7.061	-78.775	C.2	1	RES1	0.000	
15	 C35	35.271	-8.285	-79.018	C.2	1	RES1	0.000	
16	 C36	36.664	-8.268	-79.309	C.2	1	RES1	0.000	
17	 C37	37.354	-7.052	-79.322	C.2	1	RES1	0.000	
18	 C38	36.721	-5.827	-79.065	C.2	1	RES1	0.000	
19	 C39	35.337	-5.842	-78.776	C.2	1	RES1	0.000	
20	 C40	34.113	-1.015	-78.086	C.2	1	RES1	0.000	
21	 C41	35.435	-0.376	-78.302	C.3	1	RES1	0.000	
22	  F1	38.677	-7.052	-79.605	 F	1	RES1	0.000	
@<TRIPOS>BOND
1 1 6 1
2 2 6 2
3 6 7 1
4 7 8 ar
5 7 20 ar
6 3 8 ar
7 8 9 1
8 3 10 ar
9 10 11 1
10 10 20 ar
11 11 12 1
12 12 13 ar
13 12 19 ar
14 4 13 2
15 5 13 ar
16 5 14 ar
17 14 15 ar
18 14 19 ar
19 15 16 ar
20 16 17 ar
21 17 18 ar
22 18 19 ar
23 20 21 1
24 17 22 1
@<TRIPOS>SUBSTRUCTURE
1	RES1	1	GROUP	1 ****	RES
