# created with PyMOL 2.5.2
@<TRIPOS>MOLECULE
KIT_3G0E_TargetProtein
22 24 1                 
SMALL
USER_CHARGES
@<TRIPOS>ATOM
1	  C1	30.499	-1.242	-77.231	C.3	1	RES1	0.000	
2	  N1	33.638	1.692	-76.703	N.pl3	1	RES1	0.000	
3	  O1	31.847	1.767	-78.059	O.2	1	RES1	0.000	
4	  C2	31.922	-1.306	-77.603	C.2	1	RES1	0.000	
5	  C3	32.898	-0.331	-77.719	C.2	1	RES1	0.000	
6	  C4	32.754	1.099	-77.526	C.2	1	RES1	0.000	
7	  N6	33.334	-6.868	-78.476	N.2	1	RES1	0.000	
8	  N7	32.493	-2.509	-77.898	N.2	1	RES1	0.000	
9	  O7	31.963	-5.055	-77.977	O.2	1	RES1	0.000	
10	 C34	34.136	-1.024	-78.082	C.2	1	RES1	0.000	
11	 C35	35.453	-0.383	-78.310	C.3	1	RES1	0.000	
12	 C36	33.848	-2.387	-78.158	C.2	1	RES1	0.000	
13	 C37	34.669	-3.511	-78.425	C.3	1	RES1	0.000	
14	 C38	34.375	-4.828	-78.461	C.2	1	RES1	0.000	
15	 C39	33.048	-5.523	-78.262	C.2	1	RES1	0.000	
16	 C40	34.683	-7.063	-78.760	C.2	1	RES1	0.000	
17	 C41	35.290	-8.289	-79.020	C.2	1	RES1	0.000	
18	 C42	36.673	-8.278	-79.308	C.2	1	RES1	0.000	
19	 C43	37.371	-7.043	-79.321	C.2	1	RES1	0.000	
20	 C44	36.729	-5.821	-79.082	C.2	1	RES1	0.000	
21	 C45	35.344	-5.847	-78.774	C.2	1	RES1	0.000	
22	  F1	38.673	-7.058	-79.630	 F	1	RES1	0.000	
@<TRIPOS>BOND
1 1 4 1
2 2 6 1
3 3 6 2
4 4 5 ar
5 4 8 ar
6 5 6 1
7 5 10 ar
8 10 11 1
9 10 12 ar
10 8 12 ar
11 12 13 1
12 13 14 1
13 14 15 ar
14 14 21 ar
15 7 15 ar
16 9 15 2
17 7 16 ar
18 16 17 ar
19 16 21 ar
20 17 18 ar
21 18 19 ar
22 19 20 ar
23 20 21 ar
24 19 22 1
@<TRIPOS>SUBSTRUCTURE
1	RES1	1	GROUP	1 ****	RES
