# created with PyMOL 2.5.2
@<TRIPOS>MOLECULE
KIT_3G0E_TargetProtein
22 24 1                 
SMALL
USER_CHARGES
@<TRIPOS>ATOM
1	  C1	30.502	-1.179	-77.319	C.3	1	RES1	0.000	
2	  N1	33.563	1.704	-76.628	N.pl3	1	RES1	0.000	
3	  O1	31.796	1.722	-78.001	O.2	1	RES1	0.000	
4	  C2	31.941	-1.302	-77.627	C.2	1	RES1	0.000	
5	  C3	32.960	-0.312	-77.733	C.2	1	RES1	0.000	
6	  C4	32.709	1.088	-77.485	C.2	1	RES1	0.000	
7	  N5	33.336	-6.849	-78.456	N.2	1	RES1	0.000	
8	  N6	32.521	-2.511	-77.875	N.2	1	RES1	0.000	
9	  O7	31.997	-5.045	-77.948	O.2	1	RES1	0.000	
10	 C25	34.142	-1.002	-78.106	C.2	1	RES1	0.000	
11	 C26	35.492	-0.402	-78.392	C.3	1	RES1	0.000	
12	 C27	33.846	-2.385	-78.164	C.2	1	RES1	0.000	
13	 C28	34.683	-3.502	-78.436	C.3	1	RES1	0.000	
14	 C29	34.374	-4.828	-78.461	C.2	1	RES1	0.000	
15	 C30	33.069	-5.548	-78.247	C.2	1	RES1	0.000	
16	 C31	34.678	-7.056	-78.753	C.2	1	RES1	0.000	
17	 C32	35.283	-8.280	-79.023	C.2	1	RES1	0.000	
18	 C33	36.663	-8.291	-79.309	C.2	1	RES1	0.000	
19	 C34	37.332	-7.057	-79.326	C.2	1	RES1	0.000	
20	 C35	36.725	-5.837	-79.091	C.2	1	RES1	0.000	
21	 C36	35.351	-5.869	-78.799	C.2	1	RES1	0.000	
22	  F1	38.674	-7.068	-79.606	 F	1	RES1	0.000	
@<TRIPOS>BOND
1 1 4 1
2 2 6 1
3 3 6 2
4 4 5 ar
5 4 8 ar
6 5 6 1
7 5 10 ar
8 10 11 1
9 10 12 ar
10 8 12 ar
11 12 13 1
12 13 14 1
13 14 15 ar
14 14 21 ar
15 7 15 ar
16 9 15 2
17 7 16 ar
18 16 17 ar
19 16 21 ar
20 17 18 ar
21 18 19 ar
22 19 20 ar
23 20 21 ar
24 19 22 1
@<TRIPOS>SUBSTRUCTURE
1	RES1	1	GROUP	1 ****	RES
