# created with PyMOL 2.5.2
@<TRIPOS>MOLECULE
KIT_3G0E_TargetProtein
22 24 1                 
SMALL
USER_CHARGES
@<TRIPOS>ATOM
1	  C1	30.482	-1.263	-77.226	C.3	1	RES1	0.000	
2	  N1	33.696	1.670	-76.726	N.pl3	1	RES1	0.000	
3	  O1	31.847	1.772	-77.988	O.2	1	RES1	0.000	
4	  C2	31.929	-1.315	-77.598	C.2	1	RES1	0.000	
5	  C3	32.891	-0.337	-77.745	C.2	1	RES1	0.000	
6	  C4	32.755	1.098	-77.542	C.2	1	RES1	0.000	
7	  N5	33.329	-6.868	-78.466	N.2	1	RES1	0.000	
8	  N6	32.518	-2.529	-77.867	N.2	1	RES1	0.000	
9	  O7	31.983	-5.049	-77.998	O.2	1	RES1	0.000	
10	 C27	34.120	-1.035	-78.091	C.2	1	RES1	0.000	
11	 C28	35.429	-0.389	-78.329	C.3	1	RES1	0.000	
12	 C29	33.831	-2.370	-78.172	C.2	1	RES1	0.000	
13	 C30	34.675	-3.482	-78.445	C.3	1	RES1	0.000	
14	 C31	34.361	-4.819	-78.482	C.2	1	RES1	0.000	
15	 C32	33.067	-5.543	-78.283	C.2	1	RES1	0.000	
16	 C33	34.680	-7.061	-78.766	C.2	1	RES1	0.000	
17	 C34	35.289	-8.281	-79.011	C.2	1	RES1	0.000	
18	 C35	36.661	-8.243	-79.293	C.2	1	RES1	0.000	
19	 C36	37.343	-7.038	-79.325	C.2	1	RES1	0.000	
20	 C37	36.718	-5.813	-79.056	C.2	1	RES1	0.000	
21	 C38	35.357	-5.849	-78.785	C.2	1	RES1	0.000	
22	  F1	38.678	-7.065	-79.590	 F	1	RES1	0.000	
@<TRIPOS>BOND
1 1 4 1
2 2 6 1
3 3 6 2
4 4 5 ar
5 4 8 ar
6 5 6 1
7 5 10 ar
8 10 11 1
9 10 12 ar
10 8 12 ar
11 12 13 1
12 13 14 1
13 14 15 ar
14 14 21 ar
15 7 15 ar
16 9 15 2
17 7 16 ar
18 16 17 ar
19 16 21 ar
20 17 18 ar
21 18 19 ar
22 19 20 ar
23 20 21 ar
24 19 22 1
@<TRIPOS>SUBSTRUCTURE
1	RES1	1	GROUP	1 ****	RES
