# created with PyMOL 2.5.2
@<TRIPOS>MOLECULE
KIT_3G0E_TargetProtein
22 24 1                 
SMALL
USER_CHARGES
@<TRIPOS>ATOM
1	  C1	30.452	-1.235	-77.377	C.3	1	RES1	0.000	
2	  N1	33.640	1.707	-76.702	N.pl3	1	RES1	0.000	
3	  O1	31.894	1.742	-78.132	O.2	1	RES1	0.000	
4	  C2	31.919	-1.316	-77.623	C.2	1	RES1	0.000	
5	  C3	32.909	-0.314	-77.703	C.2	1	RES1	0.000	
6	  C4	32.759	1.099	-77.553	C.2	1	RES1	0.000	
7	  N5	33.358	-6.874	-78.415	N.2	1	RES1	0.000	
8	  N6	32.514	-2.534	-77.808	N.2	1	RES1	0.000	
9	  O6	31.971	-5.043	-77.968	O.2	1	RES1	0.000	
10	 C23	34.127	-1.031	-78.025	C.2	1	RES1	0.000	
11	 C24	35.451	-0.392	-78.234	C.3	1	RES1	0.000	
12	 C25	33.835	-2.397	-78.086	C.2	1	RES1	0.000	
13	 C26	34.680	-3.512	-78.399	C.3	1	RES1	0.000	
14	 C27	34.367	-4.831	-78.457	C.2	1	RES1	0.000	
15	 C28	33.067	-5.548	-78.247	C.2	1	RES1	0.000	
16	 C29	34.675	-7.053	-78.748	C.2	1	RES1	0.000	
17	 C30	35.309	-8.284	-79.016	C.2	1	RES1	0.000	
18	 C31	36.664	-8.249	-79.337	C.2	1	RES1	0.000	
19	 C32	37.348	-7.032	-79.376	C.2	1	RES1	0.000	
20	 C33	36.713	-5.829	-79.095	C.2	1	RES1	0.000	
21	 C34	35.354	-5.846	-78.798	C.2	1	RES1	0.000	
22	  F1	38.631	-7.038	-79.683	 F	1	RES1	0.000	
@<TRIPOS>BOND
1 1 4 1
2 2 6 1
3 3 6 2
4 4 5 ar
5 4 8 ar
6 5 6 1
7 5 10 ar
8 10 11 1
9 10 12 ar
10 8 12 ar
11 12 13 1
12 13 14 1
13 14 15 ar
14 14 21 ar
15 7 15 ar
16 9 15 2
17 7 16 ar
18 16 17 ar
19 16 21 ar
20 17 18 ar
21 18 19 ar
22 19 20 ar
23 20 21 ar
24 19 22 1
@<TRIPOS>SUBSTRUCTURE
1	RES1	1	GROUP	1 ****	RES
