# created with PyMOL 2.5.2
@<TRIPOS>MOLECULE
KIT_3G0E_TargetProtein
22 24 1                 
SMALL
USER_CHARGES
@<TRIPOS>ATOM
1	  C1	30.484	-1.229	-77.259	C.3	1	RES1	0.000	
2	  N1	33.658	1.717	-76.705	N.pl3	1	RES1	0.000	
3	  O1	31.802	1.727	-77.964	O.2	1	RES1	0.000	
4	  C2	31.938	-1.321	-77.621	C.2	1	RES1	0.000	
5	  C3	32.918	-0.335	-77.757	C.2	1	RES1	0.000	
6	  C4	32.752	1.102	-77.536	C.2	1	RES1	0.000	
7	  N5	33.339	-6.849	-78.453	N.2	1	RES1	0.000	
8	  N6	32.509	-2.514	-77.900	N.2	1	RES1	0.000	
9	  O6	31.989	-5.050	-77.978	O.2	1	RES1	0.000	
10	 C24	34.133	-1.015	-78.082	C.2	1	RES1	0.000	
11	 C25	35.451	-0.396	-78.313	C.3	1	RES1	0.000	
12	 C26	33.837	-2.360	-78.156	C.2	1	RES1	0.000	
13	 C27	34.673	-3.492	-78.442	C.3	1	RES1	0.000	
14	 C28	34.360	-4.826	-78.477	C.2	1	RES1	0.000	
15	 C29	33.073	-5.521	-78.259	C.2	1	RES1	0.000	
16	 C30	34.671	-7.069	-78.773	C.2	1	RES1	0.000	
17	 C31	35.295	-8.309	-79.018	C.2	1	RES1	0.000	
18	 C32	36.673	-8.265	-79.293	C.2	1	RES1	0.000	
19	 C33	37.343	-7.065	-79.319	C.2	1	RES1	0.000	
20	 C34	36.726	-5.842	-79.066	C.2	1	RES1	0.000	
21	 C35	35.345	-5.846	-78.795	C.2	1	RES1	0.000	
22	  F1	38.671	-7.053	-79.618	 F	1	RES1	0.000	
@<TRIPOS>BOND
1 1 4 1
2 2 6 1
3 3 6 2
4 4 5 ar
5 4 8 ar
6 5 6 1
7 5 10 ar
8 10 11 1
9 10 12 ar
10 8 12 ar
11 12 13 1
12 13 14 1
13 14 15 ar
14 14 21 ar
15 7 15 ar
16 9 15 2
17 7 16 ar
18 16 17 ar
19 16 21 ar
20 17 18 ar
21 18 19 ar
22 19 20 ar
23 20 21 ar
24 19 22 1
@<TRIPOS>SUBSTRUCTURE
1	RES1	1	GROUP	1 ****	RES
