# created with PyMOL 2.5.2
@<TRIPOS>MOLECULE
KIT_3G0E_TargetProtein
22 24 1                 
SMALL
USER_CHARGES
@<TRIPOS>ATOM
1	  C1	30.457	-1.230	-77.371	C.3	1	RES1	0.000	
2	  N1	33.634	1.738	-76.695	N.pl3	1	RES1	0.000	
3	  O1	31.889	1.734	-78.137	O.2	1	RES1	0.000	
4	  C2	31.909	-1.310	-77.614	C.2	1	RES1	0.000	
5	  C3	32.919	-0.343	-77.706	C.2	1	RES1	0.000	
6	  C4	32.754	1.110	-77.539	C.2	1	RES1	0.000	
7	  N5	33.344	-6.877	-78.430	N.2	1	RES1	0.000	
8	  N6	32.518	-2.538	-77.823	N.2	1	RES1	0.000	
9	  O6	31.967	-5.049	-77.956	O.2	1	RES1	0.000	
10	 C26	34.132	-1.030	-78.019	C.2	1	RES1	0.000	
11	 C27	35.453	-0.393	-78.238	C.3	1	RES1	0.000	
12	 C28	33.840	-2.378	-78.098	C.2	1	RES1	0.000	
13	 C29	34.689	-3.503	-78.394	C.3	1	RES1	0.000	
14	 C30	34.366	-4.843	-78.478	C.2	1	RES1	0.000	
15	 C31	33.064	-5.536	-78.232	C.2	1	RES1	0.000	
16	 C32	34.673	-7.062	-78.745	C.2	1	RES1	0.000	
17	 C33	35.315	-8.300	-79.027	C.2	1	RES1	0.000	
18	 C34	36.665	-8.255	-79.325	C.2	1	RES1	0.000	
19	 C35	37.340	-7.038	-79.364	C.2	1	RES1	0.000	
20	 C36	36.713	-5.814	-79.111	C.2	1	RES1	0.000	
21	 C37	35.344	-5.856	-78.800	C.2	1	RES1	0.000	
22	  F1	38.653	-7.035	-79.679	 F	1	RES1	0.000	
@<TRIPOS>BOND
1 1 4 1
2 2 6 1
3 3 6 2
4 4 5 ar
5 4 8 ar
6 5 6 1
7 5 10 ar
8 10 11 1
9 10 12 ar
10 8 12 ar
11 12 13 1
12 13 14 1
13 14 15 ar
14 14 21 ar
15 7 15 ar
16 9 15 2
17 7 16 ar
18 16 17 ar
19 16 21 ar
20 17 18 ar
21 18 19 ar
22 19 20 ar
23 20 21 ar
24 19 22 1
@<TRIPOS>SUBSTRUCTURE
1	RES1	1	GROUP	1 ****	RES
