# created with PyMOL 2.5.2
@<TRIPOS>MOLECULE
KIT_3G0E_TargetProtein
22 24 1                 
SMALL
USER_CHARGES
@<TRIPOS>ATOM
1	  C1	30.492	-1.265	-77.199	C.3	1	RES1	0.000	
2	  N1	33.656	1.682	-76.716	N.pl3	1	RES1	0.000	
3	  O1	31.869	1.758	-78.097	O.2	1	RES1	0.000	
4	  C2	31.925	-1.317	-77.587	C.2	1	RES1	0.000	
5	  C3	32.885	-0.334	-77.716	C.2	1	RES1	0.000	
6	  C4	32.745	1.104	-77.530	C.2	1	RES1	0.000	
7	  N6	33.325	-6.868	-78.462	N.2	1	RES1	0.000	
8	  N7	32.500	-2.524	-77.877	N.2	1	RES1	0.000	
9	  O7	31.984	-5.026	-77.986	O.2	1	RES1	0.000	
10	 C34	34.117	-1.024	-78.061	C.2	1	RES1	0.000	
11	 C35	35.442	-0.373	-78.303	C.3	1	RES1	0.000	
12	 C36	33.835	-2.397	-78.159	C.2	1	RES1	0.000	
13	 C37	34.668	-3.503	-78.444	C.3	1	RES1	0.000	
14	 C38	34.385	-4.808	-78.495	C.2	1	RES1	0.000	
15	 C39	33.076	-5.527	-78.274	C.2	1	RES1	0.000	
16	 C40	34.678	-7.052	-78.777	C.2	1	RES1	0.000	
17	 C41	35.296	-8.276	-79.016	C.2	1	RES1	0.000	
18	 C42	36.657	-8.265	-79.328	C.2	1	RES1	0.000	
19	 C43	37.341	-7.057	-79.320	C.2	1	RES1	0.000	
20	 C44	36.734	-5.810	-79.058	C.2	1	RES1	0.000	
21	 C45	35.365	-5.862	-78.780	C.2	1	RES1	0.000	
22	  F1	38.662	-7.068	-79.598	 F	1	RES1	0.000	
@<TRIPOS>BOND
1 1 4 1
2 2 6 1
3 3 6 2
4 4 5 ar
5 4 8 ar
6 5 6 1
7 5 10 ar
8 10 11 1
9 10 12 ar
10 8 12 ar
11 12 13 1
12 13 14 1
13 14 15 ar
14 14 21 ar
15 7 15 ar
16 9 15 2
17 7 16 ar
18 16 17 ar
19 16 21 ar
20 17 18 ar
21 18 19 ar
22 19 20 ar
23 20 21 ar
24 19 22 1
@<TRIPOS>SUBSTRUCTURE
1	RES1	1	GROUP	1 ****	RES
