# created with PyMOL 2.5.2
@<TRIPOS>MOLECULE
KIT_3G0E_TargetProtein
22 24 1                 
SMALL
USER_CHARGES
@<TRIPOS>ATOM
1	  C1	30.481	-1.276	-77.192	C.3	1	RES1	0.000	
2	  N1	33.676	1.683	-76.705	N.pl3	1	RES1	0.000	
3	  O1	31.863	1.758	-78.066	O.2	1	RES1	0.000	
4	  C2	31.915	-1.333	-77.603	C.2	1	RES1	0.000	
5	  C3	32.886	-0.348	-77.735	C.2	1	RES1	0.000	
6	  C4	32.744	1.100	-77.537	C.2	1	RES1	0.000	
7	  N5	33.351	-6.837	-78.464	N.2	1	RES1	0.000	
8	  N6	32.511	-2.540	-77.877	N.2	1	RES1	0.000	
9	  O7	31.978	-5.029	-77.987	O.2	1	RES1	0.000	
10	 C22	34.126	-1.014	-78.084	C.2	1	RES1	0.000	
11	 C23	35.437	-0.384	-78.304	C.3	1	RES1	0.000	
12	 C24	33.841	-2.381	-78.173	C.2	1	RES1	0.000	
13	 C25	34.689	-3.507	-78.433	C.3	1	RES1	0.000	
14	 C26	34.363	-4.804	-78.470	C.2	1	RES1	0.000	
15	 C27	33.073	-5.510	-78.274	C.2	1	RES1	0.000	
16	 C28	34.676	-7.050	-78.782	C.2	1	RES1	0.000	
17	 C29	35.290	-8.271	-79.019	C.2	1	RES1	0.000	
18	 C30	36.650	-8.272	-79.308	C.2	1	RES1	0.000	
19	 C31	37.358	-7.043	-79.319	C.2	1	RES1	0.000	
20	 C32	36.701	-5.836	-79.081	C.2	1	RES1	0.000	
21	 C33	35.358	-5.852	-78.782	C.2	1	RES1	0.000	
22	  F1	38.673	-7.065	-79.588	 F	1	RES1	0.000	
@<TRIPOS>BOND
1 1 4 1
2 2 6 1
3 3 6 2
4 4 5 ar
5 4 8 ar
6 5 6 1
7 5 10 ar
8 10 11 1
9 10 12 ar
10 8 12 ar
11 12 13 1
12 13 14 1
13 14 15 ar
14 14 21 ar
15 7 15 ar
16 9 15 2
17 7 16 ar
18 16 17 ar
19 16 21 ar
20 17 18 ar
21 18 19 ar
22 19 20 ar
23 20 21 ar
24 19 22 1
@<TRIPOS>SUBSTRUCTURE
1	RES1	1	GROUP	1 ****	RES
