# created with PyMOL 2.5.2
@<TRIPOS>MOLECULE
KIT_3G0E_TargetProtein
22 24 1                 
SMALL
USER_CHARGES
@<TRIPOS>ATOM
1	  C1	30.469	-1.246	-77.379	C.3	1	RES1	0.000	
2	  N1	33.603	1.724	-76.706	N.pl3	1	RES1	0.000	
3	  O1	31.911	1.719	-78.176	O.2	1	RES1	0.000	
4	  C2	31.915	-1.314	-77.609	C.2	1	RES1	0.000	
5	  C3	32.919	-0.344	-77.693	C.2	1	RES1	0.000	
6	  C4	32.748	1.091	-77.538	C.2	1	RES1	0.000	
7	  N5	33.339	-6.856	-78.410	N.2	1	RES1	0.000	
8	  N6	32.500	-2.546	-77.835	N.2	1	RES1	0.000	
9	  O8	31.988	-5.032	-77.955	O.2	1	RES1	0.000	
10	 C24	34.122	-1.058	-78.010	C.2	1	RES1	0.000	
11	 C25	35.446	-0.379	-78.189	C.3	1	RES1	0.000	
12	 C26	33.865	-2.383	-78.078	C.2	1	RES1	0.000	
13	 C27	34.688	-3.510	-78.417	C.3	1	RES1	0.000	
14	 C28	34.370	-4.807	-78.479	C.2	1	RES1	0.000	
15	 C29	33.070	-5.509	-78.231	C.2	1	RES1	0.000	
16	 C30	34.686	-7.065	-78.739	C.2	1	RES1	0.000	
17	 C31	35.306	-8.265	-79.011	C.2	1	RES1	0.000	
18	 C32	36.660	-8.251	-79.328	C.2	1	RES1	0.000	
19	 C33	37.333	-7.049	-79.387	C.2	1	RES1	0.000	
20	 C34	36.715	-5.836	-79.128	C.2	1	RES1	0.000	
21	 C35	35.341	-5.835	-78.798	C.2	1	RES1	0.000	
22	  F1	38.646	-7.060	-79.689	 F	1	RES1	0.000	
@<TRIPOS>BOND
1 1 4 1
2 2 6 1
3 3 6 2
4 4 5 ar
5 4 8 ar
6 5 6 1
7 5 10 ar
8 10 11 1
9 10 12 ar
10 8 12 ar
11 12 13 1
12 13 14 1
13 14 15 ar
14 14 21 ar
15 7 15 ar
16 9 15 2
17 7 16 ar
18 16 17 ar
19 16 21 ar
20 17 18 ar
21 18 19 ar
22 19 20 ar
23 20 21 ar
24 19 22 1
@<TRIPOS>SUBSTRUCTURE
1	RES1	1	GROUP	1 ****	RES
