# created with PyMOL 2.5.2
@<TRIPOS>MOLECULE
BRD4_6C7R_TargetProtein
35 40 1                 
SMALL
USER_CHARGES
@<TRIPOS>ATOM
1	  C1	-3.101	6.617	25.436	C.3	1	RES1	0.000	
2	  N1	-1.858	8.404	24.216	N.2	1	RES1	0.000	
3	  O1	4.952	6.935	26.733	O.2	1	RES1	0.000	
4	  C2	-2.582	8.078	25.446	C.3	1	RES1	0.000	
5	  N2	-2.564	8.960	23.186	N.2	1	RES1	0.000	
6	  C3	-1.625	9.135	22.233	C.2	1	RES1	0.000	
7	  N3	0.356	7.734	24.881	N.pl3	1	RES1	0.000	
8	  C4	-1.890	9.746	20.876	C.3	1	RES1	0.000	
9	  N4	2.559	6.846	25.333	N.2	1	RES1	0.000	
10	  C5	-2.969	10.832	20.738	C.3	1	RES1	0.000	
11	  C6	-3.250	9.473	20.221	C.3	1	RES1	0.000	
12	  O6	-3.051	5.444	20.939	O.3	1	RES1	0.000	
13	  C7	-0.340	8.735	22.665	C.2	1	RES1	0.000	
14	  O7	-2.459	2.225	17.800	O.2	1	RES1	0.000	
15	  C8	-0.518	8.279	23.965	C.2	1	RES1	0.000	
16	  N8	3.476	4.889	24.254	N.2	1	RES1	0.000	
17	  C9	1.396	6.785	24.648	C.2	1	RES1	0.000	
18	  N9	-3.517	1.928	18.633	N.2	1	RES1	0.000	
19	 C10	3.504	5.931	25.124	C.2	1	RES1	0.000	
20	 N10	1.989	3.927	22.672	N.2	1	RES1	0.000	
21	 C11	4.769	6.034	25.911	C.2	1	RES1	0.000	
22	 C31	2.302	4.864	23.587	C.2	1	RES1	0.000	
23	 C32	1.218	5.739	23.700	C.2	1	RES1	0.000	
24	 C33	0.242	5.304	22.750	C.2	1	RES1	0.000	
25	 C34	-1.038	5.740	22.394	C.2	1	RES1	0.000	
26	 C35	-1.759	5.058	21.410	C.2	1	RES1	0.000	
27	 C36	-3.698	6.493	21.704	C.3	1	RES1	0.000	
28	 C37	-1.212	3.910	20.780	C.2	1	RES1	0.000	
29	 C38	-1.951	3.185	19.769	C.2	1	RES1	0.000	
30	 C39	-1.499	2.977	18.475	C.2	1	RES1	0.000	
31	 C40	-0.318	3.380	17.701	C.3	1	RES1	0.000	
32	 C41	-3.189	2.510	19.833	C.2	1	RES1	0.000	
33	 C42	-4.153	2.399	20.966	C.3	1	RES1	0.000	
34	 C43	0.071	3.467	21.155	C.2	1	RES1	0.000	
35	 C44	0.751	4.177	22.112	C.2	1	RES1	0.000	
@<TRIPOS>BOND
1 1 4 1
2 2 4 1
3 2 5 ar
4 2 15 ar
5 3 21 2
6 5 6 ar
7 6 8 1
8 6 13 ar
9 7 15 1
10 7 17 1
11 8 10 1
12 8 11 1
13 9 17 ar
14 10 11 1
15 13 15 ar
16 14 18 ar
17 9 19 ar
18 16 19 ar
19 19 21 1
20 20 22 ar
21 20 35 ar
22 16 22 ar
23 22 23 ar
24 17 23 ar
25 23 24 ar
26 24 25 ar
27 24 35 ar
28 25 26 ar
29 12 26 1
30 26 28 ar
31 12 27 1
32 28 29 1
33 28 34 ar
34 29 30 ar
35 29 32 ar
36 14 30 ar
37 30 31 1
38 18 32 ar
39 32 33 1
40 34 35 ar
@<TRIPOS>SUBSTRUCTURE
1	RES1	1	GROUP	1 ****	RES
