# created with PyMOL 2.5.2
@<TRIPOS>MOLECULE
CDK6_2EUF_TargetProtein
33 37 1                 
SMALL
USER_CHARGES
@<TRIPOS>ATOM
1	  C1	34.395	27.797	59.454	C.3	1	RES1	0.000	
2	  N1	31.563	22.663	63.414	N.2	1	RES1	0.000	
3	  O1	32.488	28.759	60.519	O.2	1	RES1	0.000	
4	  C2	33.068	27.730	60.193	C.2	1	RES1	0.000	
5	  N2	30.291	20.864	62.763	N.pl3	1	RES1	0.000	
6	  C3	32.487	26.411	60.489	C.2	1	RES1	0.000	
7	  N3	27.665	16.668	60.019	N.pl3	1	RES1	0.000	
8	  C4	32.735	25.833	61.684	C.2	1	RES1	0.000	
9	  N4	26.576	14.442	58.475	N.3	1	RES1	0.000	
10	  C5	33.580	26.419	62.758	C.3	1	RES1	0.000	
11	  C6	32.089	24.494	61.948	C.2	1	RES1	0.000	
12	  C7	32.155	23.835	63.168	C.2	1	RES1	0.000	
13	  C8	30.854	22.096	62.459	C.2	1	RES1	0.000	
14	  C9	29.628	19.887	62.020	C.2	1	RES1	0.000	
15	  N9	29.532	18.661	62.591	N.2	1	RES1	0.000	
16	  O9	31.461	26.336	58.393	O.2	1	RES1	0.000	
17	 C10	29.025	20.105	60.747	C.2	1	RES1	0.000	
18	 N10	30.755	22.660	61.213	N.2	1	RES1	0.000	
19	 C11	28.388	19.056	60.091	C.2	1	RES1	0.000	
20	 N11	31.224	24.431	59.677	N.2	1	RES1	0.000	
21	 C12	28.321	17.760	60.634	C.2	1	RES1	0.000	
22	 C13	26.859	16.898	58.778	C.3	1	RES1	0.000	
23	 C14	25.891	15.741	58.506	C.3	1	RES1	0.000	
24	 C35	27.214	14.216	59.779	C.3	1	RES1	0.000	
25	 C36	28.224	15.313	60.118	C.3	1	RES1	0.000	
26	 C37	28.941	17.656	61.917	C.2	1	RES1	0.000	
27	 C38	31.341	23.837	60.961	C.2	1	RES1	0.000	
28	 C39	30.456	23.697	58.640	C.3	1	RES1	0.000	
29	 C40	31.345	23.032	57.540	C.3	1	RES1	0.000	
30	 C41	30.826	23.548	56.257	C.3	1	RES1	0.000	
31	 C42	29.387	23.913	56.495	C.3	1	RES1	0.000	
32	 C43	29.458	24.567	57.901	C.3	1	RES1	0.000	
33	 C44	31.673	25.738	59.422	C.2	1	RES1	0.000	
@<TRIPOS>BOND
1 1 4 1
2 2 12 ar
3 2 13 ar
4 3 4 2
5 4 6 1
6 5 13 1
7 5 14 1
8 6 8 ar
9 6 33 ar
10 7 25 1
11 8 10 1
12 8 11 ar
13 11 12 ar
14 14 15 ar
15 14 17 ar
16 17 19 ar
17 13 18 ar
18 18 27 ar
19 19 21 ar
20 20 27 ar
21 20 28 1
22 20 33 ar
23 7 21 1
24 21 26 ar
25 7 22 1
26 22 23 1
27 9 23 1
28 9 24 1
29 24 25 1
30 15 26 ar
31 11 27 ar
32 28 29 1
33 28 32 1
34 29 30 1
35 30 31 1
36 31 32 1
37 16 33 2
@<TRIPOS>SUBSTRUCTURE
1	RES1	1	GROUP	1 ****	RES
