# created with PyMOL 2.5.2
@<TRIPOS>MOLECULE
CDK6_2EUF_TargetProtein
33 37 1                 
SMALL
USER_CHARGES
@<TRIPOS>ATOM
1	  C1	34.767	27.629	59.547	C.3	1	RES1	0.000	
2	  N1	31.351	22.968	63.568	N.2	1	RES1	0.000	
3	  O1	32.684	28.678	60.046	O.2	1	RES1	0.000	
4	  C2	33.334	27.647	59.977	C.2	1	RES1	0.000	
5	  N2	30.208	21.025	62.746	N.pl3	1	RES1	0.000	
6	  C3	32.683	26.340	60.357	C.2	1	RES1	0.000	
7	  N3	27.905	16.907	59.636	N.pl3	1	RES1	0.000	
8	  C4	32.626	25.977	61.654	C.2	1	RES1	0.000	
9	  N4	26.604	14.621	58.412	N.3	1	RES1	0.000	
10	  C5	33.153	26.814	62.793	C.3	1	RES1	0.000	
11	  C6	32.011	24.682	61.986	C.2	1	RES1	0.000	
12	  C7	31.913	24.146	63.260	C.2	1	RES1	0.000	
13	  C8	30.812	22.259	62.537	C.2	1	RES1	0.000	
14	  C9	29.637	20.044	61.902	C.2	1	RES1	0.000	
15	  N9	29.375	18.874	62.480	N.2	1	RES1	0.000	
16	 C10	29.335	20.273	60.549	C.2	1	RES1	0.000	
17	 N10	30.859	22.686	61.261	N.2	1	RES1	0.000	
18	 C11	28.753	19.228	59.810	C.2	1	RES1	0.000	
19	 N11	31.460	24.339	59.655	N.2	1	RES1	0.000	
20	 C12	28.501	17.976	60.376	C.2	1	RES1	0.000	
21	 O12	32.179	25.913	58.104	O.2	1	RES1	0.000	
22	 C13	28.589	15.603	59.526	C.3	1	RES1	0.000	
23	 C14	28.045	14.755	58.359	C.3	1	RES1	0.000	
24	 C40	25.965	15.937	58.348	C.3	1	RES1	0.000	
25	 C41	26.440	16.845	59.496	C.3	1	RES1	0.000	
26	 C42	28.823	17.886	61.750	C.2	1	RES1	0.000	
27	 C43	31.412	23.884	60.977	C.2	1	RES1	0.000	
28	 C44	30.826	23.504	58.565	C.3	1	RES1	0.000	
29	 C45	29.948	24.238	57.546	C.3	1	RES1	0.000	
30	 C46	28.655	23.475	57.496	C.3	1	RES1	0.000	
31	 C47	28.977	22.073	57.965	C.3	1	RES1	0.000	
32	 C48	29.979	22.307	59.084	C.3	1	RES1	0.000	
33	 C49	32.097	25.529	59.260	C.2	1	RES1	0.000	
@<TRIPOS>BOND
1 1 4 1
2 2 12 ar
3 2 13 ar
4 3 4 2
5 4 6 1
6 5 13 1
7 5 14 1
8 6 8 ar
9 6 33 ar
10 7 25 1
11 8 10 1
12 8 11 ar
13 9 24 1
14 11 12 ar
15 14 15 ar
16 14 16 ar
17 16 18 ar
18 13 17 ar
19 17 27 ar
20 18 20 ar
21 19 27 ar
22 19 28 1
23 19 33 ar
24 7 20 1
25 20 26 ar
26 21 33 2
27 7 22 1
28 22 23 1
29 9 23 1
30 24 25 1
31 15 26 ar
32 11 27 ar
33 28 29 1
34 28 32 1
35 29 30 1
36 30 31 1
37 31 32 1
@<TRIPOS>SUBSTRUCTURE
1	RES1	1	GROUP	1 ****	RES
