# created with PyMOL 2.5.2
@<TRIPOS>MOLECULE
CDK6_2EUF_TargetProtein
33 37 1                 
SMALL
USER_CHARGES
@<TRIPOS>ATOM
1	  C1	34.413	27.705	59.425	C.3	1	RES1	0.000	
2	  N1	31.643	22.730	63.543	N.2	1	RES1	0.000	
3	  O1	32.409	28.707	60.307	O.2	1	RES1	0.000	
4	  C2	33.062	27.671	60.065	C.2	1	RES1	0.000	
5	  N2	30.392	20.829	62.782	N.pl3	1	RES1	0.000	
6	  C3	32.481	26.362	60.428	C.2	1	RES1	0.000	
7	  N3	27.687	16.780	59.926	N.pl3	1	RES1	0.000	
8	  C4	32.624	25.880	61.696	C.2	1	RES1	0.000	
9	  N4	26.593	14.589	58.336	N.3	1	RES1	0.000	
10	  C5	33.306	26.640	62.832	C.3	1	RES1	0.000	
11	  C6	32.037	24.575	62.011	C.2	1	RES1	0.000	
12	  C7	32.161	23.944	63.253	C.2	1	RES1	0.000	
13	  C8	30.978	22.083	62.544	C.2	1	RES1	0.000	
14	  C9	29.719	19.887	62.011	C.2	1	RES1	0.000	
15	  N9	29.655	18.650	62.549	N.2	1	RES1	0.000	
16	  O9	31.703	26.043	58.256	O.2	1	RES1	0.000	
17	 C10	29.124	20.148	60.781	C.2	1	RES1	0.000	
18	 N10	30.793	22.613	61.331	N.2	1	RES1	0.000	
19	 C11	28.445	19.145	60.062	C.2	1	RES1	0.000	
20	 N11	31.159	24.378	59.757	N.2	1	RES1	0.000	
21	 C12	28.357	17.856	60.611	C.2	1	RES1	0.000	
22	 C13	26.936	17.048	58.678	C.3	1	RES1	0.000	
23	 C14	25.965	15.933	58.346	C.3	1	RES1	0.000	
24	 C36	27.142	14.350	59.674	C.3	1	RES1	0.000	
25	 C37	28.193	15.401	60.084	C.3	1	RES1	0.000	
26	 C38	28.989	17.675	61.837	C.2	1	RES1	0.000	
27	 C39	31.329	23.834	61.067	C.2	1	RES1	0.000	
28	 C40	30.393	23.578	58.772	C.3	1	RES1	0.000	
29	 C41	31.248	22.971	57.657	C.3	1	RES1	0.000	
30	 C42	30.337	22.915	56.446	C.3	1	RES1	0.000	
31	 C43	29.581	24.203	56.552	C.3	1	RES1	0.000	
32	 C44	29.287	24.362	58.027	C.3	1	RES1	0.000	
33	 C45	31.761	25.580	59.376	C.2	1	RES1	0.000	
@<TRIPOS>BOND
1 1 4 1
2 2 12 ar
3 2 13 ar
4 3 4 2
5 4 6 1
6 5 13 1
7 5 14 1
8 6 8 ar
9 6 33 ar
10 7 25 1
11 8 10 1
12 8 11 ar
13 11 12 ar
14 14 15 ar
15 14 17 ar
16 17 19 ar
17 13 18 ar
18 18 27 ar
19 19 21 ar
20 20 27 ar
21 20 28 1
22 20 33 ar
23 7 21 1
24 21 26 ar
25 7 22 1
26 22 23 1
27 9 23 1
28 9 24 1
29 24 25 1
30 15 26 ar
31 11 27 ar
32 28 29 1
33 28 32 1
34 29 30 1
35 30 31 1
36 31 32 1
37 16 33 2
@<TRIPOS>SUBSTRUCTURE
1	RES1	1	GROUP	1 ****	RES
