# created with PyMOL 2.5.2
@<TRIPOS>MOLECULE
BRD4_6YQN_TargetProtein
24 27 1                 
SMALL
USER_CHARGES
@<TRIPOS>ATOM
1	 CL1	25.734	17.897	-6.988	Cl	1	RES1	0.000	
2	  C1	26.024	15.090	1.289	C.3	1	RES1	0.000	
3	  N1	30.793	16.815	0.019	N.2	1	RES1	0.000	
4	  S1	28.492	16.312	1.358	S.2	1	RES1	0.000	
5	  C2	27.236	15.492	0.524	C.2	1	RES1	0.000	
6	  N2	32.692	17.773	0.555	N.2	1	RES1	0.000	
7	  C3	27.536	15.319	-0.815	C.2	1	RES1	0.000	
8	  N3	32.928	16.954	-0.533	N.2	1	RES1	0.000	
9	  C4	26.594	14.565	-1.744	C.3	1	RES1	0.000	
10	  C5	28.796	15.876	-1.189	C.2	1	RES1	0.000	
11	  C6	29.464	16.375	-0.055	C.2	1	RES1	0.000	
12	  C7	31.429	17.705	0.882	C.2	1	RES1	0.000	
13	  C8	30.806	18.488	1.941	C.3	1	RES1	0.000	
14	  N8	30.576	15.769	-2.881	N.2	1	RES1	0.000	
15	  C9	31.797	16.390	-0.845	C.2	1	RES1	0.000	
16	 C10	31.554	15.331	-1.878	C.3	1	RES1	0.000	
17	 C11	32.831	14.960	-2.604	C.3	1	RES1	0.000	
18	 C38	29.337	16.022	-2.554	C.2	1	RES1	0.000	
19	 C39	28.443	16.488	-3.644	C.2	1	RES1	0.000	
20	 C40	27.336	17.322	-3.371	C.2	1	RES1	0.000	
21	 C41	26.503	17.730	-4.386	C.2	1	RES1	0.000	
22	 C42	26.753	17.361	-5.718	C.2	1	RES1	0.000	
23	 C43	27.866	16.540	-6.010	C.2	1	RES1	0.000	
24	 C44	28.685	16.111	-4.966	C.2	1	RES1	0.000	
@<TRIPOS>BOND
1 1 22 1
2 2 5 1
3 3 11 1
4 3 12 ar
5 3 15 ar
6 4 5 ar
7 4 11 ar
8 5 7 ar
9 6 8 ar
10 6 12 ar
11 7 9 1
12 7 10 ar
13 8 15 ar
14 10 11 ar
15 12 13 1
16 14 16 1
17 15 16 1
18 16 17 1
19 10 18 1
20 14 18 2
21 18 19 1
22 19 20 ar
23 19 24 ar
24 20 21 ar
25 21 22 ar
26 22 23 ar
27 23 24 ar
@<TRIPOS>SUBSTRUCTURE
1	RES1	1	GROUP	1 ****	RES
