# created with PyMOL 2.5.2
@<TRIPOS>MOLECULE
BRD4_6YQN_TargetProtein
24 27 1                 
SMALL
USER_CHARGES
@<TRIPOS>ATOM
1	 CL1	25.740	17.909	-6.971	Cl	1	RES1	0.000	
2	  C1	26.012	15.099	1.275	C.3	1	RES1	0.000	
3	  N1	30.803	16.819	-0.001	N.2	1	RES1	0.000	
4	  S1	28.517	16.312	1.357	S.2	1	RES1	0.000	
5	  C2	27.244	15.500	0.519	C.2	1	RES1	0.000	
6	  N2	32.692	17.785	0.537	N.2	1	RES1	0.000	
7	  C3	27.544	15.302	-0.828	C.2	1	RES1	0.000	
8	  N3	32.915	16.969	-0.509	N.2	1	RES1	0.000	
9	  C4	26.615	14.590	-1.744	C.3	1	RES1	0.000	
10	  C5	28.800	15.883	-1.187	C.2	1	RES1	0.000	
11	  C6	29.459	16.363	-0.071	C.2	1	RES1	0.000	
12	  C7	31.432	17.688	0.874	C.2	1	RES1	0.000	
13	  C8	30.800	18.493	1.963	C.3	1	RES1	0.000	
14	  N8	30.571	15.785	-2.855	N.2	1	RES1	0.000	
15	  C9	31.773	16.397	-0.852	C.2	1	RES1	0.000	
16	 C10	31.560	15.303	-1.864	C.3	1	RES1	0.000	
17	 C11	32.837	14.954	-2.613	C.3	1	RES1	0.000	
18	 C30	29.323	16.012	-2.556	C.2	1	RES1	0.000	
19	 C31	28.431	16.471	-3.645	C.2	1	RES1	0.000	
20	 C32	27.320	17.326	-3.355	C.2	1	RES1	0.000	
21	 C33	26.494	17.740	-4.400	C.2	1	RES1	0.000	
22	 C34	26.754	17.354	-5.712	C.2	1	RES1	0.000	
23	 C35	27.858	16.533	-5.996	C.2	1	RES1	0.000	
24	 C36	28.709	16.096	-4.974	C.2	1	RES1	0.000	
@<TRIPOS>BOND
1 1 22 1
2 2 5 1
3 3 11 1
4 3 12 ar
5 3 15 ar
6 4 5 ar
7 4 11 ar
8 5 7 ar
9 6 8 ar
10 6 12 ar
11 7 9 1
12 7 10 ar
13 8 15 ar
14 10 11 ar
15 12 13 1
16 14 16 1
17 15 16 1
18 16 17 1
19 10 18 1
20 14 18 2
21 18 19 1
22 19 20 ar
23 19 24 ar
24 20 21 ar
25 21 22 ar
26 22 23 ar
27 23 24 ar
@<TRIPOS>SUBSTRUCTURE
1	RES1	1	GROUP	1 ****	RES
