# created with PyMOL 2.5.2
@<TRIPOS>MOLECULE
ALK_4MKC_TargetProtein
38 41 1                 
SMALL
USER_CHARGES
@<TRIPOS>ATOM
1	 CL1	-21.126	15.074	-10.597	Cl	1	RES1	0.000	
2	  C1	-19.904	7.438	-7.099	C.3	1	RES1	0.000	
3	  N1	-23.666	10.017	-9.119	N.pl3	1	RES1	0.000	
4	  O1	-18.024	14.621	-9.049	O.2	1	RES1	0.000	
5	  S1	-17.071	13.709	-8.430	S.O2	1	RES1	0.000	
6	  C2	-21.399	7.642	-7.286	C.2	1	RES1	0.000	
7	  N2	-23.651	12.006	-10.460	N.2	1	RES1	0.000	
8	  O2	-15.923	14.234	-7.710	O.2	1	RES1	0.000	
9	  C3	-21.832	8.685	-8.103	C.2	1	RES1	0.000	
10	  N3	-20.135	13.077	-8.480	N.pl3	1	RES1	0.000	
11	  O3	-25.480	8.419	-7.907	O.3	1	RES1	0.000	
12	  C4	-23.179	8.959	-8.296	C.2	1	RES1	0.000	
13	  N4	-21.958	11.580	-8.844	N.2	1	RES1	0.000	
14	  C5	-23.123	11.254	-9.503	C.2	1	RES1	0.000	
15	  N5	-22.396	3.046	-4.456	N.3	1	RES1	0.000	
16	  C6	-23.014	13.174	-10.763	C.2	1	RES1	0.000	
17	  C7	-21.841	13.573	-10.137	C.2	1	RES1	0.000	
18	  C8	-21.321	12.757	-9.139	C.2	1	RES1	0.000	
19	  C9	-19.372	12.430	-7.463	C.2	1	RES1	0.000	
20	 C10	-20.010	11.575	-6.547	C.2	1	RES1	0.000	
21	 C11	-19.276	10.952	-5.525	C.2	1	RES1	0.000	
22	 C12	-17.913	11.172	-5.396	C.2	1	RES1	0.000	
23	 C13	-17.271	12.028	-6.273	C.2	1	RES1	0.000	
24	 C14	-18.002	12.637	-7.311	C.2	1	RES1	0.000	
25	 C15	-16.469	12.622	-9.737	C.3	1	RES1	0.000	
26	 C16	-17.608	11.846	-10.401	C.3	1	RES1	0.000	
27	 C17	-15.411	11.683	-9.200	C.3	1	RES1	0.000	
28	 C18	-24.124	8.108	-7.683	C.2	1	RES1	0.000	
29	 C19	-26.529	7.535	-7.484	C.3	1	RES1	0.000	
30	 C20	-27.814	8.338	-7.405	C.3	1	RES1	0.000	
31	 C21	-26.177	6.933	-6.147	C.3	1	RES1	0.000	
32	 C22	-23.705	7.065	-6.861	C.2	1	RES1	0.000	
33	 C23	-22.349	6.818	-6.624	C.2	1	RES1	0.000	
34	 C24	-21.928	5.660	-5.725	C.3	1	RES1	0.000	
35	 C25	-21.804	4.320	-6.493	C.3	1	RES1	0.000	
36	 C26	-21.444	3.172	-5.556	C.3	1	RES1	0.000	
37	 C52	-22.476	4.285	-3.670	C.3	1	RES1	0.000	
38	 C53	-22.880	5.471	-4.515	C.3	1	RES1	0.000	
@<TRIPOS>BOND
1 1 17 1
2 2 6 1
3 3 12 1
4 3 14 1
5 4 5 2
6 5 8 2
7 5 24 1
8 5 25 1
9 6 9 ar
10 6 33 ar
11 7 14 ar
12 7 16 ar
13 9 12 ar
14 10 18 1
15 10 19 1
16 13 14 ar
17 13 18 ar
18 15 37 1
19 16 17 ar
20 17 18 ar
21 19 20 ar
22 20 21 ar
23 21 22 ar
24 22 23 ar
25 23 24 ar
26 19 24 ar
27 25 26 1
28 25 27 1
29 11 28 1
30 12 28 ar
31 28 32 ar
32 11 29 1
33 29 30 1
34 29 31 1
35 32 33 ar
36 33 34 1
37 34 35 1
38 34 38 1
39 35 36 1
40 15 36 1
41 37 38 1
@<TRIPOS>SUBSTRUCTURE
1	RES1	1	GROUP	1 ****	RES
