# created with PyMOL 2.5.2
@<TRIPOS>MOLECULE
BRD4_6YQN_TargetProtein
24 27 1                 
SMALL
USER_CHARGES
@<TRIPOS>ATOM
1	 CL1	25.731	17.894	-7.006	Cl	1	RES1	0.000	
2	  S1	28.528	16.305	1.370	S.2	1	RES1	0.000	
3	  N7	30.587	15.778	-2.869	N.2	1	RES1	0.000	
4	  N8	30.789	16.833	-0.003	N.2	1	RES1	0.000	
5	  N9	32.710	17.768	0.554	N.2	1	RES1	0.000	
6	 N10	32.932	16.975	-0.540	N.2	1	RES1	0.000	
7	 C27	32.824	14.954	-2.601	C.3	1	RES1	0.000	
8	 C28	31.549	15.326	-1.855	C.3	1	RES1	0.000	
9	 C29	29.329	16.008	-2.554	C.2	1	RES1	0.000	
10	 C30	28.409	16.479	-3.664	C.2	1	RES1	0.000	
11	 C31	28.689	16.120	-4.968	C.2	1	RES1	0.000	
12	 C32	27.867	16.551	-6.001	C.2	1	RES1	0.000	
13	 C33	26.757	17.366	-5.715	C.2	1	RES1	0.000	
14	 C34	26.516	17.745	-4.393	C.2	1	RES1	0.000	
15	 C35	27.320	17.306	-3.363	C.2	1	RES1	0.000	
16	 C36	28.816	15.882	-1.195	C.2	1	RES1	0.000	
17	 C37	29.465	16.362	-0.061	C.2	1	RES1	0.000	
18	 C38	27.244	15.507	0.542	C.2	1	RES1	0.000	
19	 C39	26.013	15.096	1.274	C.3	1	RES1	0.000	
20	 C40	27.522	15.297	-0.814	C.2	1	RES1	0.000	
21	 C41	26.603	14.563	-1.741	C.3	1	RES1	0.000	
22	 C42	31.432	17.676	0.871	C.2	1	RES1	0.000	
23	 C43	30.791	18.491	1.949	C.3	1	RES1	0.000	
24	 C44	31.783	16.399	-0.828	C.2	1	RES1	0.000	
@<TRIPOS>BOND
1 1 13 1
2 2 17 ar
3 2 18 ar
4 5 6 ar
5 6 24 ar
6 7 8 1
7 3 8 1
8 8 24 1
9 3 9 2
10 9 10 1
11 9 16 1
12 10 11 ar
13 10 15 ar
14 11 12 ar
15 12 13 ar
16 13 14 ar
17 14 15 ar
18 16 17 ar
19 16 20 ar
20 4 17 1
21 18 19 1
22 18 20 ar
23 20 21 1
24 4 22 ar
25 5 22 ar
26 22 23 1
27 4 24 ar
@<TRIPOS>SUBSTRUCTURE
1	RES1	1	GROUP	1 ****	RES
