# created with PyMOL 2.5.2
@<TRIPOS>MOLECULE
BRD4_6YQN_TargetProtein
24 27 1                 
SMALL
USER_CHARGES
@<TRIPOS>ATOM
1	 CL1	25.732	17.898	-7.005	Cl	1	RES1	0.000	
2	  S1	28.517	16.327	1.359	S.2	1	RES1	0.000	
3	  N7	30.566	15.759	-2.871	N.2	1	RES1	0.000	
4	  N8	30.774	16.828	0.006	N.2	1	RES1	0.000	
5	  N9	32.698	17.774	0.552	N.2	1	RES1	0.000	
6	 N10	32.941	16.963	-0.517	N.2	1	RES1	0.000	
7	 C28	32.844	14.941	-2.625	C.3	1	RES1	0.000	
8	 C29	31.541	15.315	-1.858	C.3	1	RES1	0.000	
9	 C30	29.323	16.033	-2.561	C.2	1	RES1	0.000	
10	 C31	28.423	16.491	-3.655	C.2	1	RES1	0.000	
11	 C32	28.678	16.112	-4.974	C.2	1	RES1	0.000	
12	 C33	27.859	16.544	-6.010	C.2	1	RES1	0.000	
13	 C34	26.776	17.359	-5.728	C.2	1	RES1	0.000	
14	 C35	26.503	17.743	-4.392	C.2	1	RES1	0.000	
15	 C36	27.320	17.314	-3.367	C.2	1	RES1	0.000	
16	 C37	28.824	15.919	-1.192	C.2	1	RES1	0.000	
17	 C38	29.469	16.381	-0.038	C.2	1	RES1	0.000	
18	 C39	27.234	15.498	0.542	C.2	1	RES1	0.000	
19	 C40	26.019	15.076	1.290	C.3	1	RES1	0.000	
20	 C41	27.549	15.291	-0.828	C.2	1	RES1	0.000	
21	 C42	26.606	14.556	-1.727	C.3	1	RES1	0.000	
22	 C43	31.434	17.688	0.871	C.2	1	RES1	0.000	
23	 C44	30.791	18.482	1.963	C.3	1	RES1	0.000	
24	 C45	31.784	16.390	-0.845	C.2	1	RES1	0.000	
@<TRIPOS>BOND
1 1 13 1
2 2 17 ar
3 2 18 ar
4 5 6 ar
5 6 24 ar
6 7 8 1
7 3 8 1
8 8 24 1
9 3 9 2
10 9 10 1
11 9 16 1
12 10 11 ar
13 10 15 ar
14 11 12 ar
15 12 13 ar
16 13 14 ar
17 14 15 ar
18 16 17 ar
19 16 20 ar
20 4 17 1
21 18 19 1
22 18 20 ar
23 20 21 1
24 4 22 ar
25 5 22 ar
26 22 23 1
27 4 24 ar
@<TRIPOS>SUBSTRUCTURE
1	RES1	1	GROUP	1 ****	RES
