# created with PyMOL 2.5.2
@<TRIPOS>MOLECULE
BRD2_4ALH_TargetProtein
35 40 1                 
SMALL
USER_CHARGES
@<TRIPOS>ATOM
1	  C1	-2.944	6.357	25.439	C.3	1	RES1	0.000	
2	  N1	-1.916	8.333	24.321	N.2	1	RES1	0.000	
3	  O1	4.989	6.973	26.647	O.2	1	RES1	0.000	
4	  C2	-2.620	7.848	25.487	C.3	1	RES1	0.000	
5	  N2	-2.623	8.881	23.288	N.2	1	RES1	0.000	
6	  C3	-1.681	9.226	22.417	C.2	1	RES1	0.000	
7	  N3	0.322	7.720	24.965	N.pl3	1	RES1	0.000	
8	  C4	-1.967	9.906	21.068	C.3	1	RES1	0.000	
9	  N4	2.547	6.861	25.347	N.2	1	RES1	0.000	
10	  C5	-3.256	9.569	20.354	C.3	1	RES1	0.000	
11	  C6	-1.967	9.058	19.791	C.3	1	RES1	0.000	
12	  C7	-0.395	8.862	22.832	C.2	1	RES1	0.000	
13	  O7	-3.147	5.491	21.057	O.3	1	RES1	0.000	
14	  C8	-0.545	8.281	24.055	C.2	1	RES1	0.000	
15	  N8	3.487	4.992	24.148	N.2	1	RES1	0.000	
16	  O8	-2.423	2.329	17.782	O.2	1	RES1	0.000	
17	  C9	1.365	6.810	24.688	C.2	1	RES1	0.000	
18	  N9	-3.511	2.028	18.607	N.2	1	RES1	0.000	
19	 C10	3.504	5.968	25.053	C.2	1	RES1	0.000	
20	 N10	1.992	4.036	22.551	N.2	1	RES1	0.000	
21	 C11	4.798	6.109	25.814	C.2	1	RES1	0.000	
22	 C30	2.299	4.978	23.511	C.2	1	RES1	0.000	
23	 C31	1.227	5.804	23.718	C.2	1	RES1	0.000	
24	 C32	0.202	5.360	22.765	C.2	1	RES1	0.000	
25	 C33	-1.078	5.788	22.455	C.2	1	RES1	0.000	
26	 C34	-1.829	5.129	21.458	C.2	1	RES1	0.000	
27	 C35	-3.802	6.467	21.870	C.3	1	RES1	0.000	
28	 C36	-1.276	4.012	20.795	C.2	1	RES1	0.000	
29	 C37	-1.986	3.274	19.770	C.2	1	RES1	0.000	
30	 C38	-1.546	3.087	18.481	C.2	1	RES1	0.000	
31	 C39	-0.308	3.529	17.729	C.3	1	RES1	0.000	
32	 C40	-3.230	2.573	19.779	C.2	1	RES1	0.000	
33	 C41	-4.186	2.455	20.918	C.3	1	RES1	0.000	
34	 C42	0.032	3.572	21.107	C.2	1	RES1	0.000	
35	 C43	0.714	4.256	22.087	C.2	1	RES1	0.000	
@<TRIPOS>BOND
1 1 4 1
2 2 4 1
3 2 5 ar
4 2 14 ar
5 3 21 2
6 5 6 ar
7 6 8 1
8 6 12 ar
9 7 14 1
10 7 17 1
11 8 10 1
12 8 11 1
13 9 17 ar
14 10 11 1
15 12 14 ar
16 16 18 ar
17 9 19 ar
18 15 19 ar
19 19 21 1
20 20 22 ar
21 20 35 ar
22 15 22 ar
23 22 23 ar
24 17 23 ar
25 23 24 ar
26 24 25 ar
27 24 35 ar
28 25 26 ar
29 13 26 1
30 26 28 ar
31 13 27 1
32 28 29 1
33 28 34 ar
34 29 30 ar
35 29 32 ar
36 16 30 ar
37 30 31 1
38 18 32 ar
39 32 33 1
40 34 35 ar
@<TRIPOS>SUBSTRUCTURE
1	RES1	1	GROUP	1 ****	RES
