# created with PyMOL 2.5.2
@<TRIPOS>MOLECULE
BRD4_6YQN_TargetProtein
24 27 1                 
SMALL
USER_CHARGES
@<TRIPOS>ATOM
1	 CL1	25.762	17.893	-6.988	Cl	1	RES1	0.000	
2	  S1	28.502	16.300	1.370	S.2	1	RES1	0.000	
3	  N7	30.579	15.785	-2.867	N.2	1	RES1	0.000	
4	  N8	30.796	16.813	-0.010	N.2	1	RES1	0.000	
5	  N9	32.718	17.765	0.569	N.2	1	RES1	0.000	
6	 N10	32.922	16.967	-0.537	N.2	1	RES1	0.000	
7	 C29	32.839	14.958	-2.599	C.3	1	RES1	0.000	
8	 C30	31.567	15.320	-1.876	C.3	1	RES1	0.000	
9	 C31	29.337	16.011	-2.544	C.2	1	RES1	0.000	
10	 C32	28.424	16.495	-3.659	C.2	1	RES1	0.000	
11	 C33	28.704	16.132	-4.983	C.2	1	RES1	0.000	
12	 C34	27.856	16.560	-6.022	C.2	1	RES1	0.000	
13	 C35	26.757	17.337	-5.723	C.2	1	RES1	0.000	
14	 C36	26.473	17.725	-4.395	C.2	1	RES1	0.000	
15	 C37	27.318	17.316	-3.386	C.2	1	RES1	0.000	
16	 C38	28.796	15.878	-1.180	C.2	1	RES1	0.000	
17	 C39	29.438	16.370	-0.058	C.2	1	RES1	0.000	
18	 C40	27.248	15.512	0.532	C.2	1	RES1	0.000	
19	 C41	26.026	15.078	1.297	C.3	1	RES1	0.000	
20	 C42	27.534	15.324	-0.792	C.2	1	RES1	0.000	
21	 C43	26.603	14.574	-1.738	C.3	1	RES1	0.000	
22	 C44	31.439	17.684	0.856	C.2	1	RES1	0.000	
23	 C45	30.803	18.506	1.972	C.3	1	RES1	0.000	
24	 C46	31.760	16.377	-0.849	C.2	1	RES1	0.000	
@<TRIPOS>BOND
1 1 13 1
2 2 17 ar
3 2 18 ar
4 5 6 ar
5 6 24 ar
6 7 8 1
7 3 8 1
8 8 24 1
9 3 9 2
10 9 10 1
11 9 16 1
12 10 11 ar
13 10 15 ar
14 11 12 ar
15 12 13 ar
16 13 14 ar
17 14 15 ar
18 16 17 ar
19 16 20 ar
20 4 17 1
21 18 19 1
22 18 20 ar
23 20 21 1
24 4 22 ar
25 5 22 ar
26 22 23 1
27 4 24 ar
@<TRIPOS>SUBSTRUCTURE
1	RES1	1	GROUP	1 ****	RES
