# created with PyMOL 2.5.2
@<TRIPOS>MOLECULE
BRD4_6YQN_TargetProtein
24 27 1                 
SMALL
USER_CHARGES
@<TRIPOS>ATOM
1	 CL1	25.723	17.910	-6.988	Cl	1	RES1	0.000	
2	  S1	28.501	16.318	1.361	S.2	1	RES1	0.000	
3	  N7	30.571	15.766	-2.872	N.2	1	RES1	0.000	
4	  N8	30.773	16.825	0.014	N.2	1	RES1	0.000	
5	  N9	32.687	17.772	0.554	N.2	1	RES1	0.000	
6	 N10	32.926	16.968	-0.557	N.2	1	RES1	0.000	
7	 C30	32.845	14.957	-2.595	C.3	1	RES1	0.000	
8	 C31	31.540	15.334	-1.861	C.3	1	RES1	0.000	
9	 C32	29.346	16.017	-2.549	C.2	1	RES1	0.000	
10	 C33	28.421	16.475	-3.648	C.2	1	RES1	0.000	
11	 C34	28.683	16.109	-4.971	C.2	1	RES1	0.000	
12	 C35	27.855	16.546	-6.015	C.2	1	RES1	0.000	
13	 C36	26.769	17.351	-5.708	C.2	1	RES1	0.000	
14	 C37	26.518	17.761	-4.401	C.2	1	RES1	0.000	
15	 C38	27.343	17.296	-3.356	C.2	1	RES1	0.000	
16	 C39	28.816	15.873	-1.201	C.2	1	RES1	0.000	
17	 C40	29.454	16.360	-0.085	C.2	1	RES1	0.000	
18	 C41	27.244	15.509	0.529	C.2	1	RES1	0.000	
19	 C42	26.022	15.085	1.271	C.3	1	RES1	0.000	
20	 C43	27.529	15.305	-0.802	C.2	1	RES1	0.000	
21	 C44	26.618	14.562	-1.737	C.3	1	RES1	0.000	
22	 C45	31.430	17.694	0.892	C.2	1	RES1	0.000	
23	 C46	30.820	18.496	1.950	C.3	1	RES1	0.000	
24	 C47	31.773	16.393	-0.836	C.2	1	RES1	0.000	
@<TRIPOS>BOND
1 1 13 1
2 2 17 ar
3 2 18 ar
4 5 6 ar
5 6 24 ar
6 7 8 1
7 3 8 1
8 8 24 1
9 3 9 2
10 9 10 1
11 9 16 1
12 10 11 ar
13 10 15 ar
14 11 12 ar
15 12 13 ar
16 13 14 ar
17 14 15 ar
18 16 17 ar
19 16 20 ar
20 4 17 1
21 18 19 1
22 18 20 ar
23 20 21 1
24 4 22 ar
25 5 22 ar
26 22 23 1
27 4 24 ar
@<TRIPOS>SUBSTRUCTURE
1	RES1	1	GROUP	1 ****	RES
