# created with PyMOL 2.5.2
@<TRIPOS>MOLECULE
BRD4_6YQN_TargetProtein
24 27 1                 
SMALL
USER_CHARGES
@<TRIPOS>ATOM
1	 CL1	25.732	17.888	-6.983	Cl	1	RES1	0.000	
2	  S1	28.512	16.326	1.342	S.2	1	RES1	0.000	
3	  N7	30.584	15.787	-2.874	N.2	1	RES1	0.000	
4	  N8	30.798	16.803	0.002	N.2	1	RES1	0.000	
5	  N9	32.724	17.783	0.544	N.2	1	RES1	0.000	
6	 N10	32.921	16.962	-0.529	N.2	1	RES1	0.000	
7	 C31	32.833	14.969	-2.592	C.3	1	RES1	0.000	
8	 C32	31.553	15.321	-1.849	C.3	1	RES1	0.000	
9	 C33	29.318	16.024	-2.552	C.2	1	RES1	0.000	
10	 C34	28.405	16.463	-3.657	C.2	1	RES1	0.000	
11	 C35	28.702	16.097	-4.957	C.2	1	RES1	0.000	
12	 C36	27.835	16.546	-6.021	C.2	1	RES1	0.000	
13	 C37	26.763	17.361	-5.711	C.2	1	RES1	0.000	
14	 C38	26.507	17.768	-4.402	C.2	1	RES1	0.000	
15	 C39	27.340	17.337	-3.370	C.2	1	RES1	0.000	
16	 C40	28.795	15.887	-1.179	C.2	1	RES1	0.000	
17	 C41	29.480	16.373	-0.055	C.2	1	RES1	0.000	
18	 C42	27.222	15.505	0.496	C.2	1	RES1	0.000	
19	 C43	26.032	15.079	1.283	C.3	1	RES1	0.000	
20	 C44	27.530	15.288	-0.808	C.2	1	RES1	0.000	
21	 C45	26.611	14.559	-1.737	C.3	1	RES1	0.000	
22	 C46	31.426	17.699	0.883	C.2	1	RES1	0.000	
23	 C47	30.794	18.496	1.961	C.3	1	RES1	0.000	
24	 C48	31.785	16.360	-0.842	C.2	1	RES1	0.000	
@<TRIPOS>BOND
1 1 13 1
2 2 17 ar
3 2 18 ar
4 5 6 ar
5 6 24 ar
6 7 8 1
7 3 8 1
8 8 24 1
9 3 9 2
10 9 10 1
11 9 16 1
12 10 11 ar
13 10 15 ar
14 11 12 ar
15 12 13 ar
16 13 14 ar
17 14 15 ar
18 16 17 ar
19 16 20 ar
20 4 17 1
21 18 19 1
22 18 20 ar
23 20 21 1
24 4 22 ar
25 5 22 ar
26 22 23 1
27 4 24 ar
@<TRIPOS>SUBSTRUCTURE
1	RES1	1	GROUP	1 ****	RES
