# created with PyMOL 2.5.2
@<TRIPOS>MOLECULE
BRD4_6YQN_TargetProtein
24 27 1                 
SMALL
USER_CHARGES
@<TRIPOS>ATOM
1	 CL1	25.739	17.880	-6.990	Cl	1	RES1	0.000	
2	  C1	26.030	15.083	1.282	C.3	1	RES1	0.000	
3	  N1	30.798	16.810	0.012	N.2	1	RES1	0.000	
4	  S1	28.500	16.312	1.362	S.2	1	RES1	0.000	
5	  C2	27.234	15.500	0.532	C.2	1	RES1	0.000	
6	  N2	32.688	17.780	0.551	N.2	1	RES1	0.000	
7	  C3	27.535	15.322	-0.806	C.2	1	RES1	0.000	
8	  N3	32.920	16.950	-0.519	N.2	1	RES1	0.000	
9	  C4	26.602	14.564	-1.740	C.3	1	RES1	0.000	
10	  C5	28.790	15.893	-1.185	C.2	1	RES1	0.000	
11	  C6	29.456	16.378	-0.058	C.2	1	RES1	0.000	
12	  C7	31.426	17.686	0.880	C.2	1	RES1	0.000	
13	  C8	30.811	18.494	1.946	C.3	1	RES1	0.000	
14	  C9	31.792	16.373	-0.834	C.2	1	RES1	0.000	
15	 C10	31.562	15.340	-1.870	C.3	1	RES1	0.000	
16	 N10	30.570	15.775	-2.891	N.2	1	RES1	0.000	
17	 C11	32.841	14.961	-2.615	C.3	1	RES1	0.000	
18	 C36	29.335	16.015	-2.557	C.2	1	RES1	0.000	
19	 C37	28.440	16.475	-3.645	C.2	1	RES1	0.000	
20	 C38	27.321	17.321	-3.364	C.2	1	RES1	0.000	
21	 C39	26.504	17.759	-4.404	C.2	1	RES1	0.000	
22	 C40	26.753	17.354	-5.701	C.2	1	RES1	0.000	
23	 C41	27.853	16.560	-6.013	C.2	1	RES1	0.000	
24	 C42	28.703	16.096	-4.983	C.2	1	RES1	0.000	
@<TRIPOS>BOND
1 1 22 1
2 2 5 1
3 3 11 1
4 3 12 ar
5 3 14 ar
6 4 5 ar
7 4 11 ar
8 5 7 ar
9 6 8 ar
10 6 12 ar
11 7 9 1
12 7 10 ar
13 8 14 ar
14 10 11 ar
15 12 13 1
16 14 15 1
17 15 16 1
18 15 17 1
19 16 18 2
20 10 18 1
21 18 19 1
22 19 20 ar
23 19 24 ar
24 20 21 ar
25 21 22 ar
26 22 23 ar
27 23 24 ar
@<TRIPOS>SUBSTRUCTURE
1	RES1	1	GROUP	1 ****	RES
