# created with PyMOL 2.5.2
@<TRIPOS>MOLECULE
BRD4_6YQN_TargetProtein
24 27 1                 
SMALL
USER_CHARGES
@<TRIPOS>ATOM
1	 CL1	25.723	17.917	-6.993	Cl	1	RES1	0.000	
2	  C1	26.035	15.105	1.275	C.3	1	RES1	0.000	
3	  N1	30.783	16.821	-0.015	N.2	1	RES1	0.000	
4	  S1	28.514	16.323	1.355	S.2	1	RES1	0.000	
5	  C2	27.229	15.505	0.515	C.2	1	RES1	0.000	
6	  N2	32.705	17.784	0.547	N.2	1	RES1	0.000	
7	  C3	27.531	15.296	-0.806	C.2	1	RES1	0.000	
8	  N3	32.930	16.964	-0.514	N.2	1	RES1	0.000	
9	  C4	26.620	14.558	-1.743	C.3	1	RES1	0.000	
10	  C5	28.793	15.898	-1.182	C.2	1	RES1	0.000	
11	  C6	29.454	16.369	-0.070	C.2	1	RES1	0.000	
12	  C7	31.429	17.686	0.877	C.2	1	RES1	0.000	
13	  C8	30.804	18.485	1.939	C.3	1	RES1	0.000	
14	  C9	31.779	16.390	-0.825	C.2	1	RES1	0.000	
15	 C10	31.538	15.334	-1.856	C.3	1	RES1	0.000	
16	 N10	30.591	15.775	-2.860	N.2	1	RES1	0.000	
17	 C11	32.828	14.924	-2.601	C.3	1	RES1	0.000	
18	 C38	29.350	16.017	-2.562	C.2	1	RES1	0.000	
19	 C39	28.410	16.455	-3.657	C.2	1	RES1	0.000	
20	 C40	27.315	17.287	-3.357	C.2	1	RES1	0.000	
21	 C41	26.475	17.711	-4.377	C.2	1	RES1	0.000	
22	 C42	26.760	17.365	-5.712	C.2	1	RES1	0.000	
23	 C43	27.870	16.565	-6.014	C.2	1	RES1	0.000	
24	 C44	28.725	16.141	-4.976	C.2	1	RES1	0.000	
@<TRIPOS>BOND
1 1 22 1
2 2 5 1
3 3 11 1
4 3 12 ar
5 3 14 ar
6 4 5 ar
7 4 11 ar
8 5 7 ar
9 6 8 ar
10 6 12 ar
11 7 9 1
12 7 10 ar
13 8 14 ar
14 10 11 ar
15 12 13 1
16 14 15 1
17 15 16 1
18 15 17 1
19 16 18 2
20 10 18 1
21 18 19 1
22 19 20 ar
23 19 24 ar
24 20 21 ar
25 21 22 ar
26 22 23 ar
27 23 24 ar
@<TRIPOS>SUBSTRUCTURE
1	RES1	1	GROUP	1 ****	RES
