# created with PyMOL 2.5.2
@<TRIPOS>MOLECULE
BRD4_6YQN_TargetProtein
24 27 1                 
SMALL
USER_CHARGES
@<TRIPOS>ATOM
1	 CL1	25.752	17.893	-6.990	Cl	1	RES1	0.000	
2	  C1	26.021	15.094	1.273	C.3	1	RES1	0.000	
3	  N1	30.786	16.813	-0.004	N.2	1	RES1	0.000	
4	  S1	28.504	16.289	1.377	S.2	1	RES1	0.000	
5	  C2	27.243	15.496	0.529	C.2	1	RES1	0.000	
6	  N2	32.696	17.786	0.525	N.2	1	RES1	0.000	
7	  C3	27.529	15.311	-0.792	C.2	1	RES1	0.000	
8	  N3	32.927	16.972	-0.528	N.2	1	RES1	0.000	
9	  C4	26.614	14.582	-1.731	C.3	1	RES1	0.000	
10	  C5	28.795	15.873	-1.197	C.2	1	RES1	0.000	
11	  C6	29.454	16.375	-0.060	C.2	1	RES1	0.000	
12	  C7	31.431	17.673	0.880	C.2	1	RES1	0.000	
13	  C8	30.800	18.510	1.959	C.3	1	RES1	0.000	
14	  C9	31.768	16.393	-0.835	C.2	1	RES1	0.000	
15	 C10	31.577	15.323	-1.877	C.3	1	RES1	0.000	
16	 N10	30.570	15.788	-2.872	N.2	1	RES1	0.000	
17	 C11	32.838	14.949	-2.601	C.3	1	RES1	0.000	
18	 C40	29.330	16.000	-2.576	C.2	1	RES1	0.000	
19	 C41	28.423	16.480	-3.649	C.2	1	RES1	0.000	
20	 C42	27.326	17.306	-3.384	C.2	1	RES1	0.000	
21	 C43	26.510	17.753	-4.384	C.2	1	RES1	0.000	
22	 C44	26.754	17.376	-5.714	C.2	1	RES1	0.000	
23	 C45	27.866	16.536	-5.988	C.2	1	RES1	0.000	
24	 C46	28.688	16.109	-4.971	C.2	1	RES1	0.000	
@<TRIPOS>BOND
1 1 22 1
2 2 5 1
3 3 11 1
4 3 12 ar
5 3 14 ar
6 4 5 ar
7 4 11 ar
8 5 7 ar
9 6 8 ar
10 6 12 ar
11 7 9 1
12 7 10 ar
13 8 14 ar
14 10 11 ar
15 12 13 1
16 14 15 1
17 15 16 1
18 15 17 1
19 16 18 2
20 10 18 1
21 18 19 1
22 19 20 ar
23 19 24 ar
24 20 21 ar
25 21 22 ar
26 22 23 ar
27 23 24 ar
@<TRIPOS>SUBSTRUCTURE
1	RES1	1	GROUP	1 ****	RES
