# created with PyMOL 2.5.2
@<TRIPOS>MOLECULE
BRD4_6YQN_TargetProtein
24 27 1                 
SMALL
USER_CHARGES
@<TRIPOS>ATOM
1	 CL1	25.723	17.891	-6.988	Cl	1	RES1	0.000	
2	  S1	28.494	16.315	1.357	S.2	1	RES1	0.000	
3	  N7	30.583	15.761	-2.864	N.2	1	RES1	0.000	
4	  N8	30.790	16.839	0.011	N.2	1	RES1	0.000	
5	  N9	32.700	17.774	0.552	N.2	1	RES1	0.000	
6	 N10	32.914	16.968	-0.525	N.2	1	RES1	0.000	
7	 C27	32.833	14.936	-2.604	C.3	1	RES1	0.000	
8	 C28	31.554	15.319	-1.861	C.3	1	RES1	0.000	
9	 C29	29.350	16.035	-2.568	C.2	1	RES1	0.000	
10	 C30	28.422	16.492	-3.662	C.2	1	RES1	0.000	
11	 C31	28.687	16.107	-4.980	C.2	1	RES1	0.000	
12	 C32	27.841	16.552	-6.022	C.2	1	RES1	0.000	
13	 C33	26.760	17.366	-5.706	C.2	1	RES1	0.000	
14	 C34	26.517	17.746	-4.413	C.2	1	RES1	0.000	
15	 C35	27.339	17.325	-3.374	C.2	1	RES1	0.000	
16	 C36	28.792	15.872	-1.176	C.2	1	RES1	0.000	
17	 C37	29.465	16.366	-0.050	C.2	1	RES1	0.000	
18	 C38	27.230	15.501	0.521	C.2	1	RES1	0.000	
19	 C39	26.035	15.075	1.293	C.3	1	RES1	0.000	
20	 C40	27.534	15.299	-0.805	C.2	1	RES1	0.000	
21	 C41	26.612	14.562	-1.741	C.3	1	RES1	0.000	
22	 C42	31.435	17.690	0.869	C.2	1	RES1	0.000	
23	 C43	30.807	18.505	1.970	C.3	1	RES1	0.000	
24	 C44	31.785	16.388	-0.843	C.2	1	RES1	0.000	
@<TRIPOS>BOND
1 1 13 1
2 2 17 ar
3 2 18 ar
4 5 6 ar
5 6 24 ar
6 7 8 1
7 3 8 1
8 8 24 1
9 3 9 2
10 9 10 1
11 9 16 1
12 10 11 ar
13 10 15 ar
14 11 12 ar
15 12 13 ar
16 13 14 ar
17 14 15 ar
18 16 17 ar
19 16 20 ar
20 4 17 1
21 18 19 1
22 18 20 ar
23 20 21 1
24 4 22 ar
25 5 22 ar
26 22 23 1
27 4 24 ar
@<TRIPOS>SUBSTRUCTURE
1	RES1	1	GROUP	1 ****	RES
