# created with PyMOL 2.5.2
@<TRIPOS>MOLECULE
BRD4_6YQO_TargetProtein
34 38 1                 
SMALL
USER_CHARGES
@<TRIPOS>ATOM
1	 CL1	25.561	17.830	-6.937	Cl	1	RES1	0.000	
2	  C1	25.903	15.169	1.364	C.3	1	RES1	0.000	
3	  N1	30.721	16.711	-0.010	N.2	1	RES1	0.000	
4	  O1	31.504	12.822	-3.375	O.2	1	RES1	0.000	
5	  S1	28.439	16.251	1.395	S.2	1	RES1	0.000	
6	  C2	27.144	15.505	0.578	C.2	1	RES1	0.000	
7	  N2	32.664	17.582	0.482	N.2	1	RES1	0.000	
8	  C3	27.385	15.284	-0.765	C.2	1	RES1	0.000	
9	  N3	32.839	16.756	-0.582	N.2	1	RES1	0.000	
10	  C4	26.434	14.593	-1.670	C.3	1	RES1	0.000	
11	  N4	33.170	13.705	-4.760	N.pl3	1	RES1	0.000	
12	  C5	28.673	15.810	-1.161	C.2	1	RES1	0.000	
13	  N5	33.325	10.404	-9.300	N.pl3	1	RES1	0.000	
14	  C6	29.381	16.272	-0.071	C.2	1	RES1	0.000	
15	  C7	31.402	17.542	0.840	C.2	1	RES1	0.000	
16	  C8	30.828	18.361	1.916	C.3	1	RES1	0.000	
17	  C9	31.691	16.206	-0.873	C.2	1	RES1	0.000	
18	 C10	31.407	15.155	-1.882	C.3	1	RES1	0.000	
19	 N10	30.432	15.640	-2.873	N.2	1	RES1	0.000	
20	 C11	32.703	14.744	-2.614	C.3	1	RES1	0.000	
21	 C12	32.382	13.632	-3.634	C.2	1	RES1	0.000	
22	 C13	33.177	12.841	-5.885	C.2	1	RES1	0.000	
23	 C14	32.328	11.729	-6.004	C.2	1	RES1	0.000	
24	 C15	32.417	10.901	-7.164	C.2	1	RES1	0.000	
25	 C16	33.308	11.173	-8.134	C.2	1	RES1	0.000	
26	 C38	34.120	12.291	-8.027	C.2	1	RES1	0.000	
27	 C39	34.082	13.108	-6.919	C.2	1	RES1	0.000	
28	 C40	29.202	15.905	-2.539	C.2	1	RES1	0.000	
29	 C41	28.276	16.393	-3.631	C.2	1	RES1	0.000	
30	 C42	27.197	17.203	-3.329	C.2	1	RES1	0.000	
31	 C43	26.351	17.661	-4.346	C.2	1	RES1	0.000	
32	 C44	26.602	17.285	-5.660	C.2	1	RES1	0.000	
33	 C45	27.709	16.471	-5.939	C.2	1	RES1	0.000	
34	 C46	28.544	16.021	-4.959	C.2	1	RES1	0.000	
@<TRIPOS>BOND
1 1 32 1
2 2 6 1
3 3 14 1
4 3 15 ar
5 3 17 ar
6 4 21 2
7 5 6 ar
8 5 14 ar
9 6 8 ar
10 7 9 ar
11 7 15 ar
12 8 10 1
13 8 12 ar
14 9 17 ar
15 12 14 ar
16 15 16 1
17 17 18 1
18 18 20 1
19 18 19 1
20 19 28 2
21 20 21 1
22 11 21 1
23 11 22 1
24 22 23 ar
25 22 27 ar
26 23 24 ar
27 24 25 ar
28 13 25 1
29 25 26 ar
30 26 27 ar
31 12 28 1
32 28 29 1
33 29 30 ar
34 29 34 ar
35 30 31 ar
36 31 32 ar
37 32 33 ar
38 33 34 ar
@<TRIPOS>SUBSTRUCTURE
1	RES1	1	GROUP	1 ****	RES
