# created with PyMOL 2.5.2
@<TRIPOS>MOLECULE
BRD4_6YQN_TargetProtein
24 27 1                 
SMALL
USER_CHARGES
@<TRIPOS>ATOM
1	 CL1	25.756	17.895	-6.996	Cl	1	RES1	0.000	
2	  C1	26.038	15.101	1.283	C.3	1	RES1	0.000	
3	  N1	30.797	16.821	-0.001	N.2	1	RES1	0.000	
4	  S1	28.518	16.304	1.364	S.2	1	RES1	0.000	
5	  C2	27.238	15.507	0.519	C.2	1	RES1	0.000	
6	  N2	32.685	17.779	0.553	N.2	1	RES1	0.000	
7	  C3	27.541	15.304	-0.835	C.2	1	RES1	0.000	
8	  N3	32.922	16.953	-0.556	N.2	1	RES1	0.000	
9	  C4	26.624	14.572	-1.722	C.3	1	RES1	0.000	
10	  C5	28.803	15.896	-1.183	C.2	1	RES1	0.000	
11	  C6	29.462	16.354	-0.074	C.2	1	RES1	0.000	
12	  C7	31.424	17.680	0.873	C.2	1	RES1	0.000	
13	  C8	30.789	18.493	1.957	C.3	1	RES1	0.000	
14	  C9	31.780	16.394	-0.841	C.2	1	RES1	0.000	
15	 C10	31.540	15.319	-1.862	C.3	1	RES1	0.000	
16	 N10	30.576	15.765	-2.874	N.2	1	RES1	0.000	
17	 C11	32.845	14.962	-2.582	C.3	1	RES1	0.000	
18	 C41	29.329	16.011	-2.550	C.2	1	RES1	0.000	
19	 C42	28.413	16.478	-3.660	C.2	1	RES1	0.000	
20	 C43	27.333	17.309	-3.369	C.2	1	RES1	0.000	
21	 C44	26.491	17.752	-4.390	C.2	1	RES1	0.000	
22	 C45	26.754	17.369	-5.719	C.2	1	RES1	0.000	
23	 C46	27.850	16.540	-5.985	C.2	1	RES1	0.000	
24	 C47	28.698	16.127	-4.959	C.2	1	RES1	0.000	
@<TRIPOS>BOND
1 1 22 1
2 2 5 1
3 3 11 1
4 3 12 ar
5 3 14 ar
6 4 5 ar
7 4 11 ar
8 5 7 ar
9 6 8 ar
10 6 12 ar
11 7 9 1
12 7 10 ar
13 8 14 ar
14 10 11 ar
15 12 13 1
16 14 15 1
17 15 16 1
18 15 17 1
19 16 18 2
20 10 18 1
21 18 19 1
22 19 20 ar
23 19 24 ar
24 20 21 ar
25 21 22 ar
26 22 23 ar
27 23 24 ar
@<TRIPOS>SUBSTRUCTURE
1	RES1	1	GROUP	1 ****	RES
