# created with PyMOL 2.5.2
@<TRIPOS>MOLECULE
BRD4_6YQN_TargetProtein
24 27 1                 
SMALL
USER_CHARGES
@<TRIPOS>ATOM
1	 CL1	25.733	17.915	-7.003	Cl	1	RES1	0.000	
2	  C1	26.030	15.077	1.286	C.3	1	RES1	0.000	
3	  N1	30.775	16.823	0.009	N.2	1	RES1	0.000	
4	  S1	28.531	16.321	1.357	S.2	1	RES1	0.000	
5	  C2	27.252	15.500	0.535	C.2	1	RES1	0.000	
6	  N2	32.704	17.780	0.543	N.2	1	RES1	0.000	
7	  C3	27.529	15.297	-0.794	C.2	1	RES1	0.000	
8	  N3	32.924	16.964	-0.519	N.2	1	RES1	0.000	
9	  C4	26.620	14.576	-1.733	C.3	1	RES1	0.000	
10	  C5	28.819	15.887	-1.187	C.2	1	RES1	0.000	
11	  C6	29.465	16.363	-0.074	C.2	1	RES1	0.000	
12	  C7	31.429	17.678	0.869	C.2	1	RES1	0.000	
13	  C8	30.769	18.492	1.953	C.3	1	RES1	0.000	
14	  C9	31.777	16.376	-0.822	C.2	1	RES1	0.000	
15	 C10	31.552	15.319	-1.858	C.3	1	RES1	0.000	
16	 N10	30.572	15.764	-2.875	N.2	1	RES1	0.000	
17	 C11	32.833	14.972	-2.612	C.3	1	RES1	0.000	
18	 C42	29.322	16.014	-2.578	C.2	1	RES1	0.000	
19	 C43	28.413	16.501	-3.651	C.2	1	RES1	0.000	
20	 C44	27.337	17.323	-3.362	C.2	1	RES1	0.000	
21	 C45	26.517	17.769	-4.410	C.2	1	RES1	0.000	
22	 C46	26.765	17.363	-5.729	C.2	1	RES1	0.000	
23	 C47	27.851	16.526	-6.004	C.2	1	RES1	0.000	
24	 C48	28.683	16.083	-4.950	C.2	1	RES1	0.000	
@<TRIPOS>BOND
1 1 22 1
2 2 5 1
3 3 11 1
4 3 12 ar
5 3 14 ar
6 4 5 ar
7 4 11 ar
8 5 7 ar
9 6 8 ar
10 6 12 ar
11 7 9 1
12 7 10 ar
13 8 14 ar
14 10 11 ar
15 12 13 1
16 14 15 1
17 15 16 1
18 15 17 1
19 16 18 2
20 10 18 1
21 18 19 1
22 19 20 ar
23 19 24 ar
24 20 21 ar
25 21 22 ar
26 22 23 ar
27 23 24 ar
@<TRIPOS>SUBSTRUCTURE
1	RES1	1	GROUP	1 ****	RES
