# created with PyMOL 2.5.2
@<TRIPOS>MOLECULE
BRD4_6C7R_TargetProtein
35 40 1                 
SMALL
USER_CHARGES
@<TRIPOS>ATOM
1	  C1	-3.047	6.599	25.422	C.3	1	RES1	0.000	
2	  N1	-1.864	8.382	24.165	N.2	1	RES1	0.000	
3	  O1	4.935	6.923	26.738	O.2	1	RES1	0.000	
4	  C2	-2.602	8.051	25.382	C.3	1	RES1	0.000	
5	  N2	-2.524	8.913	23.133	N.2	1	RES1	0.000	
6	  C3	-1.575	9.126	22.213	C.2	1	RES1	0.000	
7	  N3	0.351	7.722	24.905	N.pl3	1	RES1	0.000	
8	  C4	-1.899	9.719	20.840	C.3	1	RES1	0.000	
9	  N4	2.549	6.853	25.352	N.2	1	RES1	0.000	
10	  C5	-2.982	10.755	20.729	C.3	1	RES1	0.000	
11	  C6	-3.253	9.427	20.221	C.3	1	RES1	0.000	
12	  C7	-0.279	8.729	22.700	C.2	1	RES1	0.000	
13	  O7	-3.069	5.436	20.983	O.3	1	RES1	0.000	
14	  C8	-0.497	8.262	23.942	C.2	1	RES1	0.000	
15	  N8	3.454	4.884	24.249	N.2	1	RES1	0.000	
16	  O8	-2.463	2.275	17.795	O.2	1	RES1	0.000	
17	  C9	1.391	6.789	24.683	C.2	1	RES1	0.000	
18	  N9	-3.503	1.971	18.631	N.2	1	RES1	0.000	
19	 C10	3.518	5.931	25.127	C.2	1	RES1	0.000	
20	 N10	1.992	3.953	22.650	N.2	1	RES1	0.000	
21	 C11	4.742	6.039	25.895	C.2	1	RES1	0.000	
22	 C30	2.302	4.870	23.595	C.2	1	RES1	0.000	
23	 C31	1.239	5.752	23.715	C.2	1	RES1	0.000	
24	 C32	0.239	5.328	22.754	C.2	1	RES1	0.000	
25	 C33	-1.039	5.764	22.390	C.2	1	RES1	0.000	
26	 C34	-1.752	5.056	21.418	C.2	1	RES1	0.000	
27	 C35	-3.723	6.477	21.759	C.3	1	RES1	0.000	
28	 C36	-1.207	3.924	20.802	C.2	1	RES1	0.000	
29	 C37	-1.965	3.198	19.777	C.2	1	RES1	0.000	
30	 C38	-1.519	2.989	18.488	C.2	1	RES1	0.000	
31	 C39	-0.319	3.450	17.713	C.3	1	RES1	0.000	
32	 C40	-3.212	2.508	19.823	C.2	1	RES1	0.000	
33	 C41	-4.142	2.394	20.973	C.3	1	RES1	0.000	
34	 C42	0.058	3.488	21.159	C.2	1	RES1	0.000	
35	 C43	0.745	4.176	22.118	C.2	1	RES1	0.000	
@<TRIPOS>BOND
1 1 4 1
2 2 4 1
3 2 5 ar
4 2 14 ar
5 3 21 2
6 5 6 ar
7 6 8 1
8 6 12 ar
9 7 14 1
10 7 17 1
11 8 10 1
12 8 11 1
13 9 17 ar
14 10 11 1
15 12 14 ar
16 16 18 ar
17 9 19 ar
18 15 19 ar
19 19 21 1
20 20 22 ar
21 20 35 ar
22 15 22 ar
23 22 23 ar
24 17 23 ar
25 23 24 ar
26 24 25 ar
27 24 35 ar
28 25 26 ar
29 13 26 1
30 26 28 ar
31 13 27 1
32 28 29 1
33 28 34 ar
34 29 30 ar
35 29 32 ar
36 16 30 ar
37 30 31 1
38 18 32 ar
39 32 33 1
40 34 35 ar
@<TRIPOS>SUBSTRUCTURE
1	RES1	1	GROUP	1 ****	RES
