# created with PyMOL 2.5.2
@<TRIPOS>MOLECULE
BRD4_6YQN_TargetProtein
24 27 1                 
SMALL
USER_CHARGES
@<TRIPOS>ATOM
1	 CL1	26.195	15.613	-7.389	Cl	1	RES1	0.000	
2	  C1	25.918	15.451	1.308	C.3	1	RES1	0.000	
3	  N1	30.909	16.099	-0.124	N.2	1	RES1	0.000	
4	  S1	28.684	15.259	1.166	S.2	1	RES1	0.000	
5	  C2	27.166	15.786	0.575	C.2	1	RES1	0.000	
6	  N2	33.079	15.751	0.207	N.2	1	RES1	0.000	
7	  C3	27.289	16.522	-0.615	C.2	1	RES1	0.000	
8	  N3	32.945	16.906	-0.502	N.2	1	RES1	0.000	
9	  C4	26.113	17.148	-1.291	C.3	1	RES1	0.000	
10	  C5	28.656	16.597	-1.061	C.2	1	RES1	0.000	
11	  C6	29.503	16.022	-0.138	C.2	1	RES1	0.000	
12	  C7	31.878	15.270	0.440	C.2	1	RES1	0.000	
13	  C8	31.660	13.966	1.129	C.3	1	RES1	0.000	
14	  C9	31.645	17.098	-0.692	C.2	1	RES1	0.000	
15	 C10	30.981	18.302	-1.303	C.3	1	RES1	0.000	
16	 N10	30.184	17.911	-2.481	N.3	1	RES1	0.000	
17	 C11	32.015	19.331	-1.788	C.3	1	RES1	0.000	
18	 C42	29.130	17.149	-2.376	C.3	1	RES1	0.000	
19	 C43	28.375	16.787	-3.606	C.2	1	RES1	0.000	
20	 C44	27.048	16.340	-3.559	C.2	1	RES1	0.000	
21	 C45	26.393	15.981	-4.711	C.2	1	RES1	0.000	
22	 C46	27.041	16.054	-5.946	C.2	1	RES1	0.000	
23	 C47	28.358	16.491	-6.022	C.2	1	RES1	0.000	
24	 C48	29.037	16.847	-4.833	C.2	1	RES1	0.000	
@<TRIPOS>BOND
1 1 22 1
2 2 5 1
3 3 11 1
4 3 12 ar
5 3 14 ar
6 4 5 ar
7 4 11 ar
8 5 7 ar
9 6 8 ar
10 6 12 ar
11 7 9 1
12 7 10 ar
13 8 14 ar
14 10 11 ar
15 12 13 1
16 14 15 1
17 15 16 1
18 15 17 1
19 16 18 1
20 10 18 1
21 18 19 1
22 19 20 ar
23 19 24 ar
24 20 21 ar
25 21 22 ar
26 22 23 ar
27 23 24 ar
@<TRIPOS>SUBSTRUCTURE
1	RES1	1	GROUP	1 ****	RES
