# created with PyMOL 2.5.2
@<TRIPOS>MOLECULE
EGFR_6DUK_TargetProtein
39 44 1                 
SMALL
USER_CHARGES
@<TRIPOS>ATOM
1	  S1	38.377	90.570	-66.921	S.2	1	RES1	0.000	
2	  N3	46.453	101.211	-59.020	N.3	1	RES1	0.000	
3	  N4	45.267	98.571	-59.250	N.pl3	1	RES1	0.000	
4	  N5	41.092	89.648	-62.189	N.2	1	RES1	0.000	
5	  N6	38.493	89.127	-64.601	N.pl3	1	RES1	0.000	
6	  O6	40.501	90.295	-64.871	O.2	1	RES1	0.000	
7	  N7	36.427	89.375	-65.735	N.2	1	RES1	0.000	
8	  O7	38.666	90.178	-61.214	O.3	1	RES1	0.000	
9	  O8	41.049	91.559	-63.586	O.3	1	RES1	0.000	
10	 C19	46.793	100.170	-58.044	C.3	1	RES1	0.000	
11	 C20	46.606	98.722	-58.648	C.3	1	RES1	0.000	
12	 C21	44.780	97.235	-59.498	C.2	1	RES1	0.000	
13	 C22	43.815	96.965	-60.478	C.2	1	RES1	0.000	
14	 C23	43.339	95.657	-60.693	C.2	1	RES1	0.000	
15	 C24	43.781	94.574	-59.938	C.2	1	RES1	0.000	
16	 C25	43.268	93.214	-60.126	C.2	1	RES1	0.000	
17	 C26	43.386	92.263	-59.123	C.2	1	RES1	0.000	
18	 C27	42.884	90.957	-59.259	C.2	1	RES1	0.000	
19	 C28	42.236	90.619	-60.444	C.2	1	RES1	0.000	
20	 C29	41.581	89.352	-60.880	C.2	1	RES1	0.000	
21	 C30	40.291	88.734	-63.031	C.3	1	RES1	0.000	
22	 C31	39.792	89.478	-64.275	C.2	1	RES1	0.000	
23	 C32	37.734	89.618	-65.650	C.2	1	RES1	0.000	
24	 C33	35.929	89.985	-66.856	C.2	1	RES1	0.000	
25	 C34	36.824	90.681	-67.639	C.2	1	RES1	0.000	
26	 C35	39.168	88.072	-62.233	C.2	1	RES1	0.000	
27	 C36	38.867	86.703	-62.354	C.2	1	RES1	0.000	
28	 C37	37.852	86.139	-61.609	C.2	1	RES1	0.000	
29	 C38	37.103	86.880	-60.713	C.2	1	RES1	0.000	
30	 C39	37.350	88.252	-60.606	C.2	1	RES1	0.000	
31	 C40	38.368	88.817	-61.350	C.2	1	RES1	0.000	
32	 C41	41.352	90.960	-62.526	C.2	1	RES1	0.000	
33	 C42	42.079	91.573	-61.428	C.2	1	RES1	0.000	
34	 C43	42.607	92.850	-61.320	C.2	1	RES1	0.000	
35	 C44	44.725	94.871	-58.930	C.2	1	RES1	0.000	
36	 C45	45.207	96.177	-58.726	C.2	1	RES1	0.000	
37	 C46	44.835	99.690	-60.152	C.3	1	RES1	0.000	
38	 C47	45.099	101.053	-59.486	C.3	1	RES1	0.000	
39	  F1	37.588	84.816	-61.747	 F	1	RES1	0.000	
@<TRIPOS>BOND
1 1 23 ar
2 1 25 ar
3 2 38 1
4 3 37 1
5 2 10 1
6 10 11 1
7 3 11 1
8 3 12 1
9 12 13 ar
10 12 36 ar
11 13 14 ar
12 14 15 ar
13 15 16 1
14 15 35 ar
15 16 17 ar
16 16 34 ar
17 17 18 ar
18 18 19 ar
19 19 20 ar
20 19 33 ar
21 4 20 ar
22 4 21 1
23 21 22 1
24 21 26 1
25 5 22 1
26 6 22 2
27 5 23 1
28 7 23 ar
29 7 24 ar
30 24 25 ar
31 26 27 ar
32 26 31 ar
33 27 28 ar
34 28 29 ar
35 29 30 ar
36 30 31 ar
37 8 31 1
38 4 32 ar
39 9 32 1
40 32 33 ar
41 33 34 ar
42 35 36 ar
43 37 38 1
44 28 39 1
@<TRIPOS>SUBSTRUCTURE
1	RES1	1	GROUP	1 ****	RES
