# created with PyMOL 2.5.2
@<TRIPOS>MOLECULE
AR_3V49_TargetProtein
28 30 1                 
SMALL
USER_CHARGES
@<TRIPOS>ATOM
1	  C1	28.317	-1.648	3.305	C.3	1	RES1	0.000	
2	  N1	27.975	-0.458	4.061	N.pl3	1	RES1	0.000	
3	  O1	27.337	0.882	2.338	O.2	1	RES1	0.000	
4	  C2	27.509	0.716	3.548	C.2	1	RES1	0.000	
5	  N2	27.270	1.571	4.550	N.pl3	1	RES1	0.000	
6	  O2	27.477	1.541	6.903	O.3	1	RES1	0.000	
7	  C3	26.777	2.915	4.361	C.2	1	RES1	0.000	
8	  N3	24.992	7.982	3.798	N.1	1	RES1	0.000	
9	  O3	33.428	-0.960	7.524	O.3	1	RES1	0.000	
10	  C4	27.362	3.980	5.061	C.2	1	RES1	0.000	
11	  C5	26.861	5.257	4.877	C.2	1	RES1	0.000	
12	  C6	25.793	5.518	4.008	C.2	1	RES1	0.000	
13	  C7	25.359	6.898	3.877	C.1	1	RES1	0.000	
14	  C8	25.206	4.483	3.303	C.2	1	RES1	0.000	
15	  C9	24.054	4.700	2.348	C.3	1	RES1	0.000	
16	 C10	25.696	3.164	3.488	C.2	1	RES1	0.000	
17	 C11	27.585	1.026	5.760	C.3	1	RES1	0.000	
18	 C12	28.078	-0.393	5.531	C.3	1	RES1	0.000	
19	 C13	27.039	-1.346	6.191	C.3	1	RES1	0.000	
20	 C14	29.532	-0.575	6.031	C.2	1	RES1	0.000	
21	 C15	29.939	0.036	7.253	C.2	1	RES1	0.000	
22	 C16	31.225	-0.112	7.743	C.2	1	RES1	0.000	
23	 C17	32.157	-0.845	7.006	C.2	1	RES1	0.000	
24	 C39	31.800	-1.424	5.797	C.2	1	RES1	0.000	
25	 C40	30.492	-1.302	5.318	C.2	1	RES1	0.000	
26	  F1	22.866	4.844	3.019	 F	1	RES1	0.000	
27	  F2	24.220	5.812	1.570	 F	1	RES1	0.000	
28	  F3	23.851	3.661	1.489	 F	1	RES1	0.000	
@<TRIPOS>BOND
1 1 2 1
2 2 4 1
3 2 18 1
4 3 4 2
5 4 5 1
6 5 7 1
7 7 10 ar
8 8 13 3
9 10 11 ar
10 11 12 ar
11 12 13 1
12 12 14 ar
13 14 15 1
14 7 16 ar
15 14 16 ar
16 5 17 1
17 6 17 1
18 17 18 1
19 18 19 1
20 18 20 1
21 20 21 ar
22 20 25 ar
23 21 22 ar
24 22 23 ar
25 9 23 1
26 23 24 ar
27 24 25 ar
28 15 26 1
29 15 27 1
30 15 28 1
@<TRIPOS>SUBSTRUCTURE
1	RES1	1	GROUP	1 ****	RES
