# created with PyMOL 2.5.2
@<TRIPOS>MOLECULE
TRKA_4YNE_TargetProtein
27 31 1                 
SMALL
USER_CHARGES
@<TRIPOS>ATOM
1	  N3	-16.771	-39.858	-11.560	N.2	1	RES1	0.000	
2	  N4	-15.807	-43.085	-15.833	N.pl3	1	RES1	0.000	
3	  C5	-18.464	-44.612	-9.198	C.2	1	RES1	0.000	
4	  N5	-16.495	-42.673	-13.636	N.2	1	RES1	0.000	
5	  C6	-18.536	-45.770	-9.977	C.2	1	RES1	0.000	
6	  N6	-16.706	-41.785	-12.653	N.2	1	RES1	0.000	
7	  C7	-18.176	-45.699	-11.306	C.2	1	RES1	0.000	
8	  N7	-18.015	-43.431	-9.656	N.2	1	RES1	0.000	
9	  C8	-17.686	-44.490	-11.819	C.2	1	RES1	0.000	
10	  C9	-17.681	-43.362	-10.966	C.2	1	RES1	0.000	
11	 C10	-17.220	-42.054	-11.405	C.2	1	RES1	0.000	
12	 C11	-17.254	-40.836	-10.761	C.2	1	RES1	0.000	
13	 C12	-16.431	-40.453	-12.698	C.2	1	RES1	0.000	
14	 C13	-15.903	-39.931	-13.884	C.2	1	RES1	0.000	
15	 C14	-15.696	-40.751	-14.930	C.2	1	RES1	0.000	
16	 C15	-16.008	-42.205	-14.745	C.2	1	RES1	0.000	
17	 C16	-15.126	-42.761	-17.079	C.3	1	RES1	0.000	
18	 C17	-14.700	-44.091	-17.632	C.3	1	RES1	0.000	
19	 C18	-15.833	-45.020	-17.207	C.3	1	RES1	0.000	
20	 C19	-16.157	-44.530	-15.798	C.3	1	RES1	0.000	
21	 C20	-17.603	-44.792	-15.444	C.2	1	RES1	0.000	
22	 C21	-18.008	-45.840	-14.633	C.2	1	RES1	0.000	
23	 C22	-19.361	-46.059	-14.325	C.2	1	RES1	0.000	
24	 C23	-20.331	-45.204	-14.818	C.2	1	RES1	0.000	
25	 C24	-19.949	-44.128	-15.626	C.2	1	RES1	0.000	
26	 C25	-18.609	-43.920	-15.929	C.2	1	RES1	0.000	
27	  F1	-20.864	-43.299	-16.097	 F	1	RES1	0.000	
@<TRIPOS>BOND
1 3 5 ar
2 3 8 ar
3 4 6 ar
4 5 7 ar
5 7 9 ar
6 8 10 ar
7 9 10 ar
8 6 11 ar
9 10 11 1
10 11 12 ar
11 1 12 ar
12 1 13 ar
13 6 13 ar
14 13 14 ar
15 14 15 ar
16 15 16 ar
17 2 16 1
18 4 16 ar
19 2 17 1
20 17 18 1
21 18 19 1
22 19 20 1
23 2 20 1
24 20 21 1
25 21 22 ar
26 21 26 ar
27 22 23 ar
28 23 24 ar
29 24 25 ar
30 25 26 ar
31 25 27 1
@<TRIPOS>SUBSTRUCTURE
1	RES1	1	GROUP	1 ****	RES
