# created with PyMOL 2.5.2
@<TRIPOS>MOLECULE
TRKA_4YNE_TargetProtein
27 31 1                 
SMALL
USER_CHARGES
@<TRIPOS>ATOM
1	  N5	-16.744	-39.829	-11.537	N.2	1	RES1	0.000	
2	  N6	-15.809	-43.091	-15.841	N.pl3	1	RES1	0.000	
3	  N7	-16.464	-42.675	-13.649	N.2	1	RES1	0.000	
4	  N8	-16.675	-41.776	-12.618	N.2	1	RES1	0.000	
5	  N9	-18.026	-43.414	-9.658	N.2	1	RES1	0.000	
6	 C14	-18.452	-44.622	-9.174	C.2	1	RES1	0.000	
7	 C15	-18.521	-45.769	-9.948	C.2	1	RES1	0.000	
8	 C16	-18.114	-45.690	-11.290	C.2	1	RES1	0.000	
9	 C17	-17.704	-44.472	-11.791	C.2	1	RES1	0.000	
10	 C18	-17.675	-43.355	-10.940	C.2	1	RES1	0.000	
11	 C19	-17.195	-42.034	-11.373	C.2	1	RES1	0.000	
12	 C20	-17.236	-40.825	-10.745	C.2	1	RES1	0.000	
13	 C21	-16.400	-40.423	-12.657	C.2	1	RES1	0.000	
14	 C22	-15.892	-39.927	-13.886	C.2	1	RES1	0.000	
15	 C23	-15.683	-40.747	-14.894	C.2	1	RES1	0.000	
16	 C24	-16.011	-42.224	-14.768	C.2	1	RES1	0.000	
17	 C25	-15.086	-42.765	-17.032	C.3	1	RES1	0.000	
18	 C26	-14.675	-44.115	-17.607	C.3	1	RES1	0.000	
19	 C27	-15.826	-45.011	-17.196	C.3	1	RES1	0.000	
20	 C28	-16.181	-44.509	-15.794	C.3	1	RES1	0.000	
21	 C29	-17.658	-44.754	-15.486	C.2	1	RES1	0.000	
22	 C30	-18.026	-45.818	-14.663	C.2	1	RES1	0.000	
23	 C31	-19.365	-46.075	-14.382	C.2	1	RES1	0.000	
24	 C32	-20.349	-45.245	-14.871	C.2	1	RES1	0.000	
25	 C33	-19.998	-44.180	-15.679	C.2	1	RES1	0.000	
26	 C34	-18.665	-43.922	-15.974	C.2	1	RES1	0.000	
27	  F1	-20.959	-43.369	-16.162	 F	1	RES1	0.000	
@<TRIPOS>BOND
1 3 4 ar
2 5 6 ar
3 6 7 ar
4 7 8 ar
5 8 9 ar
6 9 10 ar
7 5 10 ar
8 10 11 1
9 4 11 ar
10 11 12 ar
11 1 12 ar
12 1 13 ar
13 4 13 ar
14 13 14 ar
15 14 15 ar
16 15 16 ar
17 2 16 1
18 3 16 ar
19 2 17 1
20 17 18 1
21 18 19 1
22 19 20 1
23 2 20 1
24 20 21 1
25 21 22 ar
26 21 26 ar
27 22 23 ar
28 23 24 ar
29 24 25 ar
30 25 26 ar
31 25 27 1
@<TRIPOS>SUBSTRUCTURE
1	RES1	1	GROUP	1 ****	RES
