# created with PyMOL 2.5.2
@<TRIPOS>MOLECULE
TRKA_4YNE_TargetProtein
27 31 1                 
SMALL
USER_CHARGES
@<TRIPOS>ATOM
1	  N3	-16.751	-39.838	-11.563	N.2	1	RES1	0.000	
2	  N4	-15.786	-43.083	-15.827	N.pl3	1	RES1	0.000	
3	  C5	-18.481	-44.610	-9.204	C.2	1	RES1	0.000	
4	  N5	-16.481	-42.685	-13.641	N.2	1	RES1	0.000	
5	  C6	-18.579	-45.773	-9.991	C.2	1	RES1	0.000	
6	  N6	-16.693	-41.751	-12.669	N.2	1	RES1	0.000	
7	  C7	-18.168	-45.691	-11.320	C.2	1	RES1	0.000	
8	  N7	-18.025	-43.436	-9.672	N.2	1	RES1	0.000	
9	  C8	-17.720	-44.480	-11.825	C.2	1	RES1	0.000	
10	  C9	-17.683	-43.363	-10.964	C.2	1	RES1	0.000	
11	 C10	-17.205	-42.055	-11.401	C.2	1	RES1	0.000	
12	 C11	-17.264	-40.839	-10.775	C.2	1	RES1	0.000	
13	 C12	-16.425	-40.434	-12.694	C.2	1	RES1	0.000	
14	 C13	-15.883	-39.941	-13.884	C.2	1	RES1	0.000	
15	 C14	-15.666	-40.733	-14.898	C.2	1	RES1	0.000	
16	 C15	-16.018	-42.216	-14.784	C.2	1	RES1	0.000	
17	 C16	-15.073	-42.756	-17.041	C.3	1	RES1	0.000	
18	 C17	-14.677	-44.115	-17.631	C.3	1	RES1	0.000	
19	 C18	-15.821	-45.021	-17.220	C.3	1	RES1	0.000	
20	 C19	-16.177	-44.499	-15.819	C.3	1	RES1	0.000	
21	 C20	-17.624	-44.764	-15.467	C.2	1	RES1	0.000	
22	 C21	-17.993	-45.862	-14.663	C.2	1	RES1	0.000	
23	 C22	-19.327	-46.111	-14.349	C.2	1	RES1	0.000	
24	 C23	-20.319	-45.253	-14.801	C.2	1	RES1	0.000	
25	 C24	-19.968	-44.139	-15.586	C.2	1	RES1	0.000	
26	 C25	-18.645	-43.871	-15.904	C.2	1	RES1	0.000	
27	  F1	-20.937	-43.320	-16.024	 F	1	RES1	0.000	
@<TRIPOS>BOND
1 3 5 ar
2 3 8 ar
3 4 6 ar
4 5 7 ar
5 7 9 ar
6 8 10 ar
7 9 10 ar
8 6 11 ar
9 10 11 1
10 11 12 ar
11 1 12 ar
12 1 13 ar
13 6 13 ar
14 13 14 ar
15 14 15 ar
16 15 16 ar
17 2 16 1
18 4 16 ar
19 2 17 1
20 17 18 1
21 18 19 1
22 19 20 1
23 2 20 1
24 20 21 1
25 21 22 ar
26 21 26 ar
27 22 23 ar
28 23 24 ar
29 24 25 ar
30 25 26 ar
31 25 27 1
@<TRIPOS>SUBSTRUCTURE
1	RES1	1	GROUP	1 ****	RES
