# created with PyMOL 2.5.2
@<TRIPOS>MOLECULE
TRKA_4YNE_TargetProtein
27 31 1                 
SMALL
USER_CHARGES
@<TRIPOS>ATOM
1	  N3	-16.725	-39.846	-11.537	N.2	1	RES1	0.000	
2	  N4	-15.810	-43.066	-15.816	N.pl3	1	RES1	0.000	
3	  C5	-18.488	-44.593	-9.180	C.2	1	RES1	0.000	
4	  N5	-16.479	-42.677	-13.663	N.2	1	RES1	0.000	
5	  C6	-18.569	-45.740	-9.964	C.2	1	RES1	0.000	
6	  N6	-16.684	-41.772	-12.635	N.2	1	RES1	0.000	
7	  C7	-18.164	-45.685	-11.290	C.2	1	RES1	0.000	
8	  N7	-18.028	-43.416	-9.624	N.2	1	RES1	0.000	
9	  C8	-17.722	-44.466	-11.803	C.2	1	RES1	0.000	
10	  C9	-17.658	-43.350	-10.945	C.2	1	RES1	0.000	
11	 C10	-17.178	-42.049	-11.396	C.2	1	RES1	0.000	
12	 C11	-17.238	-40.849	-10.758	C.2	1	RES1	0.000	
13	 C12	-16.410	-40.438	-12.684	C.2	1	RES1	0.000	
14	 C13	-15.877	-39.922	-13.844	C.2	1	RES1	0.000	
15	 C14	-15.664	-40.747	-14.915	C.2	1	RES1	0.000	
16	 C15	-16.007	-42.197	-14.759	C.2	1	RES1	0.000	
17	 C16	-15.070	-42.758	-17.071	C.3	1	RES1	0.000	
18	 C17	-14.688	-44.092	-17.626	C.3	1	RES1	0.000	
19	 C18	-15.825	-44.991	-17.194	C.3	1	RES1	0.000	
20	 C19	-16.187	-44.510	-15.814	C.3	1	RES1	0.000	
21	 C20	-17.651	-44.771	-15.497	C.2	1	RES1	0.000	
22	 C21	-18.008	-45.860	-14.706	C.2	1	RES1	0.000	
23	 C22	-19.316	-46.121	-14.378	C.2	1	RES1	0.000	
24	 C23	-20.330	-45.270	-14.854	C.2	1	RES1	0.000	
25	 C24	-19.985	-44.174	-15.626	C.2	1	RES1	0.000	
26	 C25	-18.670	-43.926	-15.948	C.2	1	RES1	0.000	
27	  F1	-20.961	-43.352	-16.087	 F	1	RES1	0.000	
@<TRIPOS>BOND
1 3 5 ar
2 3 8 ar
3 4 6 ar
4 5 7 ar
5 7 9 ar
6 8 10 ar
7 9 10 ar
8 6 11 ar
9 10 11 1
10 11 12 ar
11 1 12 ar
12 1 13 ar
13 6 13 ar
14 13 14 ar
15 14 15 ar
16 15 16 ar
17 2 16 1
18 4 16 ar
19 2 17 1
20 17 18 1
21 18 19 1
22 19 20 1
23 2 20 1
24 20 21 1
25 21 22 ar
26 21 26 ar
27 22 23 ar
28 23 24 ar
29 24 25 ar
30 25 26 ar
31 25 27 1
@<TRIPOS>SUBSTRUCTURE
1	RES1	1	GROUP	1 ****	RES
