# created with PyMOL 2.5.2
@<TRIPOS>MOLECULE
TRKA_4YNE_TargetProtein
27 31 1                 
SMALL
USER_CHARGES
@<TRIPOS>ATOM
1	  N5	-16.708	-39.822	-11.575	N.2	1	RES1	0.000	
2	  N6	-15.843	-43.062	-15.807	N.pl3	1	RES1	0.000	
3	  N7	-16.506	-42.686	-13.643	N.2	1	RES1	0.000	
4	  N8	-16.697	-41.774	-12.600	N.2	1	RES1	0.000	
5	  N9	-18.019	-43.377	-9.590	N.2	1	RES1	0.000	
6	 C17	-18.454	-44.575	-9.053	C.2	1	RES1	0.000	
7	 C18	-18.462	-45.765	-9.791	C.2	1	RES1	0.000	
8	 C19	-18.037	-45.730	-11.110	C.2	1	RES1	0.000	
9	 C20	-17.612	-44.510	-11.676	C.2	1	RES1	0.000	
10	 C21	-17.608	-43.356	-10.847	C.2	1	RES1	0.000	
11	 C22	-17.190	-42.047	-11.372	C.2	1	RES1	0.000	
12	 C23	-17.191	-40.823	-10.717	C.2	1	RES1	0.000	
13	 C24	-16.411	-40.410	-12.657	C.2	1	RES1	0.000	
14	 C25	-15.877	-39.906	-13.872	C.2	1	RES1	0.000	
15	 C26	-15.652	-40.767	-14.894	C.2	1	RES1	0.000	
16	 C27	-16.029	-42.202	-14.748	C.2	1	RES1	0.000	
17	 C28	-15.119	-42.763	-17.044	C.3	1	RES1	0.000	
18	 C29	-14.664	-44.112	-17.563	C.3	1	RES1	0.000	
19	 C30	-15.793	-44.996	-17.178	C.3	1	RES1	0.000	
20	 C31	-16.223	-44.505	-15.807	C.3	1	RES1	0.000	
21	 C32	-17.672	-44.757	-15.536	C.2	1	RES1	0.000	
22	 C33	-18.069	-45.848	-14.751	C.2	1	RES1	0.000	
23	 C34	-19.424	-46.115	-14.510	C.2	1	RES1	0.000	
24	 C35	-20.414	-45.272	-15.034	C.2	1	RES1	0.000	
25	 C36	-20.047	-44.176	-15.818	C.2	1	RES1	0.000	
26	 C37	-18.680	-43.910	-16.079	C.2	1	RES1	0.000	
27	  F1	-20.989	-43.375	-16.343	 F	1	RES1	0.000	
@<TRIPOS>BOND
1 3 4 ar
2 5 6 ar
3 6 7 ar
4 7 8 ar
5 8 9 ar
6 9 10 ar
7 5 10 ar
8 10 11 1
9 4 11 ar
10 11 12 ar
11 1 12 ar
12 1 13 ar
13 4 13 ar
14 13 14 ar
15 14 15 ar
16 15 16 ar
17 2 16 1
18 3 16 ar
19 2 17 1
20 17 18 1
21 18 19 1
22 19 20 1
23 2 20 1
24 20 21 1
25 21 22 ar
26 21 26 ar
27 22 23 ar
28 23 24 ar
29 24 25 ar
30 25 26 ar
31 25 27 1
@<TRIPOS>SUBSTRUCTURE
1	RES1	1	GROUP	1 ****	RES
