# created with PyMOL 2.5.2
@<TRIPOS>MOLECULE
TRKA_4YNE_TargetProtein
27 31 1                 
SMALL
USER_CHARGES
@<TRIPOS>ATOM
1	  N5	-16.716	-39.833	-11.535	N.2	1	RES1	0.000	
2	  N6	-15.811	-43.084	-15.823	N.pl3	1	RES1	0.000	
3	  N7	-16.488	-42.676	-13.640	N.2	1	RES1	0.000	
4	  N8	-16.662	-41.792	-12.632	N.2	1	RES1	0.000	
5	  N9	-18.033	-43.419	-9.660	N.2	1	RES1	0.000	
6	 C15	-18.497	-44.602	-9.187	C.2	1	RES1	0.000	
7	 C16	-18.577	-45.771	-9.960	C.2	1	RES1	0.000	
8	 C17	-18.174	-45.682	-11.286	C.2	1	RES1	0.000	
9	 C18	-17.705	-44.480	-11.803	C.2	1	RES1	0.000	
10	 C19	-17.663	-43.332	-10.957	C.2	1	RES1	0.000	
11	 C20	-17.194	-42.059	-11.391	C.2	1	RES1	0.000	
12	 C21	-17.216	-40.836	-10.744	C.2	1	RES1	0.000	
13	 C22	-16.382	-40.438	-12.668	C.2	1	RES1	0.000	
14	 C23	-15.854	-39.924	-13.877	C.2	1	RES1	0.000	
15	 C24	-15.676	-40.727	-14.888	C.2	1	RES1	0.000	
16	 C25	-16.008	-42.192	-14.757	C.2	1	RES1	0.000	
17	 C26	-15.103	-42.719	-17.061	C.3	1	RES1	0.000	
18	 C27	-14.665	-44.098	-17.625	C.3	1	RES1	0.000	
19	 C28	-15.807	-45.012	-17.222	C.3	1	RES1	0.000	
20	 C29	-16.182	-44.496	-15.808	C.3	1	RES1	0.000	
21	 C30	-17.654	-44.742	-15.486	C.2	1	RES1	0.000	
22	 C31	-18.004	-45.843	-14.674	C.2	1	RES1	0.000	
23	 C32	-19.331	-46.077	-14.333	C.2	1	RES1	0.000	
24	 C33	-20.331	-45.269	-14.849	C.2	1	RES1	0.000	
25	 C34	-20.010	-44.198	-15.643	C.2	1	RES1	0.000	
26	 C35	-18.669	-43.932	-16.000	C.2	1	RES1	0.000	
27	  F1	-20.975	-43.405	-16.108	 F	1	RES1	0.000	
@<TRIPOS>BOND
1 3 4 ar
2 5 6 ar
3 6 7 ar
4 7 8 ar
5 8 9 ar
6 9 10 ar
7 5 10 ar
8 10 11 1
9 4 11 ar
10 11 12 ar
11 1 12 ar
12 1 13 ar
13 4 13 ar
14 13 14 ar
15 14 15 ar
16 15 16 ar
17 2 16 1
18 3 16 ar
19 2 17 1
20 17 18 1
21 18 19 1
22 19 20 1
23 2 20 1
24 20 21 1
25 21 22 ar
26 21 26 ar
27 22 23 ar
28 23 24 ar
29 24 25 ar
30 25 26 ar
31 25 27 1
@<TRIPOS>SUBSTRUCTURE
1	RES1	1	GROUP	1 ****	RES
