# created with PyMOL 2.5.2
@<TRIPOS>MOLECULE
38_3HLL_TargetProtein
30 32 1                 
SMALL
USER_CHARGES
@<TRIPOS>ATOM
1	  C1	31.743	37.713	24.634	C.3	1	RES1	0.000	
2	  N1	35.659	38.950	29.782	N.pl3	1	RES1	0.000	
3	  O1	36.679	40.163	28.081	O.2	1	RES1	0.000	
4	  C2	32.780	38.173	25.624	C.2	1	RES1	0.000	
5	  C3	32.469	38.265	26.994	C.2	1	RES1	0.000	
6	  C4	33.402	38.651	27.919	C.2	1	RES1	0.000	
7	  C5	34.715	39.006	27.507	C.2	1	RES1	0.000	
8	  N5	34.479	38.438	23.829	N.2	1	RES1	0.000	
9	  C6	35.752	39.435	28.479	C.2	1	RES1	0.000	
10	  O6	35.578	38.193	19.819	O.3	1	RES1	0.000	
11	  C7	36.605	39.337	30.801	C.3	1	RES1	0.000	
12	  O7	34.256	40.730	23.646	O.2	1	RES1	0.000	
13	 C24	35.058	38.902	26.151	C.2	1	RES1	0.000	
14	 C25	34.097	38.514	25.207	C.2	1	RES1	0.000	
15	 C26	34.775	37.185	23.240	C.2	1	RES1	0.000	
16	 C27	34.723	35.934	24.063	C.3	1	RES1	0.000	
17	 C28	35.112	37.158	21.941	C.2	1	RES1	0.000	
18	 C29	35.149	38.360	21.157	C.2	1	RES1	0.000	
19	 C30	35.993	36.849	19.609	C.3	1	RES1	0.000	
20	 C31	36.705	36.795	18.261	C.2	1	RES1	0.000	
21	 C32	36.016	36.520	17.074	C.2	1	RES1	0.000	
22	 C33	36.713	36.488	15.861	C.2	1	RES1	0.000	
23	 C34	38.046	36.781	15.835	C.2	1	RES1	0.000	
24	 C35	38.776	37.106	16.972	C.2	1	RES1	0.000	
25	 C36	38.069	37.098	18.196	C.2	1	RES1	0.000	
26	 C37	34.922	39.544	21.680	C.2	1	RES1	0.000	
27	 C38	34.519	39.641	23.122	C.2	1	RES1	0.000	
28	 BR1	35.041	41.163	20.693	Br	1	RES1	0.000	
29	  F1	38.708	36.803	14.648	 F	1	RES1	0.000	
30	  F2	38.770	37.411	19.309	 F	1	RES1	0.000	
@<TRIPOS>BOND
1 1 4 1
2 2 9 1
3 2 11 1
4 3 9 2
5 4 5 ar
6 4 14 ar
7 5 6 ar
8 6 7 ar
9 7 9 1
10 7 13 ar
11 13 14 ar
12 8 14 1
13 8 15 ar
14 15 16 1
15 15 17 ar
16 17 18 ar
17 10 18 1
18 18 26 ar
19 10 19 1
20 19 20 1
21 20 21 ar
22 20 25 ar
23 21 22 ar
24 22 23 ar
25 23 24 ar
26 24 25 ar
27 26 27 ar
28 8 27 ar
29 12 27 2
30 26 28 1
31 23 29 1
32 25 30 1
@<TRIPOS>SUBSTRUCTURE
1	RES1	1	GROUP	1 ****	RES
