# created with PyMOL 2.5.2
@<TRIPOS>MOLECULE
BRD2_4ALH_TargetProtein
35 40 1                 
SMALL
USER_CHARGES
@<TRIPOS>ATOM
1	  C1	-2.931	6.567	25.441	C.3	1	RES1	0.000	
2	  N1	-1.844	8.431	24.219	N.2	1	RES1	0.000	
3	  O1	5.691	5.314	25.872	O.3	1	RES1	0.000	
4	  C2	-2.556	8.056	25.426	C.3	1	RES1	0.000	
5	  N2	-2.528	8.989	23.179	N.2	1	RES1	0.000	
6	  C3	-1.618	9.224	22.256	C.2	1	RES1	0.000	
7	  N3	0.371	7.724	24.852	N.pl3	1	RES1	0.000	
8	  C4	-1.963	9.847	20.913	C.3	1	RES1	0.000	
9	  N4	2.544	6.828	25.325	N.2	1	RES1	0.000	
10	  C5	-3.053	10.903	20.809	C.3	1	RES1	0.000	
11	  C6	-3.305	9.541	20.299	C.3	1	RES1	0.000	
12	  O6	-3.020	5.454	20.938	O.3	1	RES1	0.000	
13	  C7	-0.328	8.826	22.669	C.2	1	RES1	0.000	
14	  O7	-2.424	2.184	17.805	O.2	1	RES1	0.000	
15	  C8	-0.497	8.273	23.922	C.2	1	RES1	0.000	
16	  N8	3.464	4.861	24.276	N.2	1	RES1	0.000	
17	  C9	1.394	6.775	24.625	C.2	1	RES1	0.000	
18	  N9	-3.511	1.947	18.642	N.2	1	RES1	0.000	
19	 C10	3.511	5.914	25.127	C.2	1	RES1	0.000	
20	 N10	1.981	3.898	22.650	N.2	1	RES1	0.000	
21	 C11	4.756	6.074	25.916	C.3	1	RES1	0.000	
22	 C30	2.285	4.843	23.587	C.2	1	RES1	0.000	
23	 C31	1.228	5.748	23.697	C.2	1	RES1	0.000	
24	 C32	0.252	5.280	22.730	C.2	1	RES1	0.000	
25	 C33	-1.026	5.726	22.362	C.2	1	RES1	0.000	
26	 C34	-1.754	5.046	21.383	C.2	1	RES1	0.000	
27	 C35	-3.683	6.493	21.658	C.3	1	RES1	0.000	
28	 C36	-1.196	3.898	20.783	C.2	1	RES1	0.000	
29	 C37	-1.928	3.135	19.779	C.2	1	RES1	0.000	
30	 C38	-1.488	2.902	18.477	C.2	1	RES1	0.000	
31	 C39	-0.271	3.259	17.737	C.3	1	RES1	0.000	
32	 C40	-3.218	2.513	19.810	C.2	1	RES1	0.000	
33	 C41	-4.193	2.438	20.916	C.3	1	RES1	0.000	
34	 C42	0.063	3.423	21.162	C.2	1	RES1	0.000	
35	 C43	0.753	4.138	22.138	C.2	1	RES1	0.000	
@<TRIPOS>BOND
1 1 4 1
2 2 4 1
3 2 5 ar
4 2 15 ar
5 3 21 1
6 5 6 ar
7 6 8 1
8 6 13 ar
9 7 15 1
10 7 17 1
11 8 10 1
12 8 11 1
13 9 17 ar
14 10 11 1
15 13 15 ar
16 14 18 ar
17 9 19 ar
18 16 19 ar
19 19 21 1
20 20 22 ar
21 20 35 ar
22 16 22 ar
23 22 23 ar
24 17 23 ar
25 23 24 ar
26 24 25 ar
27 24 35 ar
28 25 26 ar
29 12 26 1
30 26 28 ar
31 12 27 1
32 28 29 1
33 28 34 ar
34 29 30 ar
35 29 32 ar
36 14 30 ar
37 30 31 1
38 18 32 ar
39 32 33 1
40 34 35 ar
@<TRIPOS>SUBSTRUCTURE
1	RES1	1	GROUP	1 ****	RES
