# created with PyMOL 2.5.2
@<TRIPOS>MOLECULE
38_3HLL_TargetProtein
30 32 1                 
SMALL
USER_CHARGES
@<TRIPOS>ATOM
1	  C1	31.755	37.705	24.612	C.3	1	RES1	0.000	
2	  N1	35.595	38.956	29.789	N.pl3	1	RES1	0.000	
3	  O1	36.607	40.247	28.154	O.2	1	RES1	0.000	
4	  C2	32.770	38.159	25.613	C.2	1	RES1	0.000	
5	  C3	32.447	38.279	26.967	C.2	1	RES1	0.000	
6	  C4	33.377	38.661	27.924	C.2	1	RES1	0.000	
7	  C5	34.684	39.019	27.498	C.2	1	RES1	0.000	
8	  N5	34.491	38.426	23.861	N.2	1	RES1	0.000	
9	  C6	35.737	39.457	28.509	C.2	1	RES1	0.000	
10	  C7	36.518	39.294	30.831	C.3	1	RES1	0.000	
11	  O7	35.685	38.216	19.856	O.3	1	RES1	0.000	
12	  O8	34.266	40.713	23.650	O.2	1	RES1	0.000	
13	 C25	35.040	38.916	26.145	C.2	1	RES1	0.000	
14	 C26	34.092	38.510	25.224	C.2	1	RES1	0.000	
15	 C27	34.822	37.191	23.259	C.2	1	RES1	0.000	
16	 C28	34.730	35.906	24.060	C.3	1	RES1	0.000	
17	 C29	35.223	37.162	21.986	C.2	1	RES1	0.000	
18	 C30	35.319	38.390	21.203	C.2	1	RES1	0.000	
19	 C31	36.066	36.862	19.601	C.3	1	RES1	0.000	
20	 C32	36.736	36.800	18.247	C.2	1	RES1	0.000	
21	 C33	35.990	36.544	17.101	C.2	1	RES1	0.000	
22	 C34	36.628	36.545	15.840	C.2	1	RES1	0.000	
23	 C35	37.991	36.791	15.769	C.2	1	RES1	0.000	
24	 C36	38.744	37.044	16.901	C.2	1	RES1	0.000	
25	 C37	38.090	37.060	18.134	C.2	1	RES1	0.000	
26	 C38	34.957	39.576	21.727	C.2	1	RES1	0.000	
27	 C39	34.539	39.635	23.147	C.2	1	RES1	0.000	
28	 BR1	35.009	41.175	20.727	Br	1	RES1	0.000	
29	  F1	38.588	36.783	14.564	 F	1	RES1	0.000	
30	  F2	38.822	37.288	19.237	 F	1	RES1	0.000	
@<TRIPOS>BOND
1 1 4 1
2 2 9 1
3 2 10 1
4 3 9 2
5 4 5 ar
6 4 14 ar
7 5 6 ar
8 6 7 ar
9 7 9 1
10 7 13 ar
11 13 14 ar
12 8 14 1
13 8 15 ar
14 15 16 1
15 15 17 ar
16 17 18 ar
17 11 18 1
18 18 26 ar
19 11 19 1
20 19 20 1
21 20 21 ar
22 20 25 ar
23 21 22 ar
24 22 23 ar
25 23 24 ar
26 24 25 ar
27 26 27 ar
28 8 27 ar
29 12 27 2
30 26 28 1
31 23 29 1
32 25 30 1
@<TRIPOS>SUBSTRUCTURE
1	RES1	1	GROUP	1 ****	RES
