# created with PyMOL 2.5.2
@<TRIPOS>MOLECULE
38_3HLL_TargetProtein
30 32 1                 
SMALL
USER_CHARGES
@<TRIPOS>ATOM
1	  C1	31.738	37.721	24.615	C.3	1	RES1	0.000	
2	  N1	35.612	38.959	29.787	N.pl3	1	RES1	0.000	
3	  O1	36.563	40.238	28.132	O.2	1	RES1	0.000	
4	  C2	32.796	38.145	25.643	C.2	1	RES1	0.000	
5	  C3	32.451	38.245	26.986	C.2	1	RES1	0.000	
6	  C4	33.392	38.649	27.906	C.2	1	RES1	0.000	
7	  C5	34.682	38.997	27.525	C.2	1	RES1	0.000	
8	  N5	34.483	38.424	23.857	N.2	1	RES1	0.000	
9	  C6	35.711	39.448	28.502	C.2	1	RES1	0.000	
10	  C7	36.553	39.325	30.835	C.3	1	RES1	0.000	
11	  O8	35.666	38.229	19.867	O.3	1	RES1	0.000	
12	  O9	34.252	40.724	23.659	O.2	1	RES1	0.000	
13	 C26	35.025	38.901	26.170	C.2	1	RES1	0.000	
14	 C27	34.089	38.496	25.211	C.2	1	RES1	0.000	
15	 C28	34.821	37.189	23.268	C.2	1	RES1	0.000	
16	 C29	34.744	35.922	24.037	C.3	1	RES1	0.000	
17	 C30	35.207	37.166	21.968	C.2	1	RES1	0.000	
18	 C31	35.289	38.413	21.196	C.2	1	RES1	0.000	
19	 C32	36.076	36.877	19.591	C.3	1	RES1	0.000	
20	 C33	36.747	36.850	18.245	C.2	1	RES1	0.000	
21	 C34	36.001	36.592	17.087	C.2	1	RES1	0.000	
22	 C35	36.617	36.557	15.837	C.2	1	RES1	0.000	
23	 C36	37.988	36.763	15.760	C.2	1	RES1	0.000	
24	 C37	38.745	36.999	16.909	C.2	1	RES1	0.000	
25	 C38	38.106	37.060	18.141	C.2	1	RES1	0.000	
26	 C39	34.955	39.592	21.725	C.2	1	RES1	0.000	
27	 C40	34.546	39.642	23.165	C.2	1	RES1	0.000	
28	 BR1	35.018	41.181	20.719	Br	1	RES1	0.000	
29	  F1	38.613	36.709	14.575	 F	1	RES1	0.000	
30	  F2	38.825	37.291	19.215	 F	1	RES1	0.000	
@<TRIPOS>BOND
1 1 4 1
2 2 9 1
3 2 10 1
4 3 9 2
5 4 5 ar
6 4 14 ar
7 5 6 ar
8 6 7 ar
9 7 9 1
10 7 13 ar
11 13 14 ar
12 8 14 1
13 8 15 ar
14 15 16 1
15 15 17 ar
16 17 18 ar
17 11 18 1
18 18 26 ar
19 11 19 1
20 19 20 1
21 20 21 ar
22 20 25 ar
23 21 22 ar
24 22 23 ar
25 23 24 ar
26 24 25 ar
27 26 27 ar
28 8 27 ar
29 12 27 2
30 26 28 1
31 23 29 1
32 25 30 1
@<TRIPOS>SUBSTRUCTURE
1	RES1	1	GROUP	1 ****	RES
