# created with PyMOL 2.5.2
@<TRIPOS>MOLECULE
38_3HLL_TargetProtein
30 32 1                 
SMALL
USER_CHARGES
@<TRIPOS>ATOM
1	  C1	31.765	37.691	24.646	C.3	1	RES1	0.000	
2	  N1	35.610	38.943	29.815	N.pl3	1	RES1	0.000	
3	  O1	36.541	40.275	28.194	O.2	1	RES1	0.000	
4	  C2	32.793	38.147	25.636	C.2	1	RES1	0.000	
5	  C3	32.480	38.249	27.005	C.2	1	RES1	0.000	
6	  C4	33.431	38.686	27.916	C.2	1	RES1	0.000	
7	  C5	34.725	38.988	27.518	C.2	1	RES1	0.000	
8	  N5	34.494	38.408	23.854	N.2	1	RES1	0.000	
9	  C6	35.721	39.443	28.524	C.2	1	RES1	0.000	
10	  C7	36.538	39.328	30.842	C.3	1	RES1	0.000	
11	  O9	35.559	38.205	19.821	O.3	1	RES1	0.000	
12	 O10	34.317	40.728	23.660	O.2	1	RES1	0.000	
13	 C27	35.073	38.906	26.149	C.2	1	RES1	0.000	
14	 C28	34.121	38.471	25.202	C.2	1	RES1	0.000	
15	 C29	34.785	37.218	23.222	C.2	1	RES1	0.000	
16	 C30	34.749	35.919	24.033	C.3	1	RES1	0.000	
17	 C31	35.116	37.167	21.930	C.2	1	RES1	0.000	
18	 C32	35.151	38.356	21.147	C.2	1	RES1	0.000	
19	 C33	36.027	36.888	19.580	C.3	1	RES1	0.000	
20	 C34	36.716	36.867	18.265	C.2	1	RES1	0.000	
21	 C35	36.013	36.570	17.084	C.2	1	RES1	0.000	
22	 C36	36.680	36.505	15.840	C.2	1	RES1	0.000	
23	 C37	38.032	36.759	15.766	C.2	1	RES1	0.000	
24	 C38	38.793	37.036	16.925	C.2	1	RES1	0.000	
25	 C39	38.090	37.096	18.145	C.2	1	RES1	0.000	
26	 C40	34.925	39.579	21.697	C.2	1	RES1	0.000	
27	 C41	34.557	39.638	23.170	C.2	1	RES1	0.000	
28	 BR1	35.030	41.192	20.729	Br	1	RES1	0.000	
29	  F1	38.660	36.681	14.580	 F	1	RES1	0.000	
30	  F2	38.819	37.367	19.237	 F	1	RES1	0.000	
@<TRIPOS>BOND
1 1 4 1
2 2 9 1
3 2 10 1
4 3 9 2
5 4 5 ar
6 4 14 ar
7 5 6 ar
8 6 7 ar
9 7 9 1
10 12 27 2
11 7 13 ar
12 13 14 ar
13 8 14 1
14 8 15 ar
15 15 16 1
16 15 17 ar
17 17 18 ar
18 11 18 1
19 18 26 ar
20 11 19 1
21 19 20 1
22 20 21 ar
23 20 25 ar
24 21 22 ar
25 22 23 ar
26 23 24 ar
27 24 25 ar
28 26 27 ar
29 8 27 ar
30 26 28 1
31 23 29 1
32 25 30 1
@<TRIPOS>SUBSTRUCTURE
1	RES1	1	GROUP	1 ****	RES
