# created with PyMOL 2.5.2
@<TRIPOS>MOLECULE
38_3HLL_TargetProtein
30 32 1                 
SMALL
USER_CHARGES
@<TRIPOS>ATOM
1	  C1	31.721	37.741	24.626	C.3	1	RES1	0.000	
2	  N1	35.629	38.894	29.764	N.pl3	1	RES1	0.000	
3	  O1	36.559	40.295	28.183	O.2	1	RES1	0.000	
4	  C2	32.768	38.173	25.623	C.2	1	RES1	0.000	
5	  C3	32.437	38.279	26.966	C.2	1	RES1	0.000	
6	  C4	33.373	38.698	27.904	C.2	1	RES1	0.000	
7	  C5	34.673	39.058	27.528	C.2	1	RES1	0.000	
8	  N5	34.499	38.403	23.876	N.2	1	RES1	0.000	
9	  C6	35.733	39.477	28.503	C.2	1	RES1	0.000	
10	  C7	36.545	39.238	30.827	C.3	1	RES1	0.000	
11	 O12	35.688	38.197	19.875	O.3	1	RES1	0.000	
12	 O13	34.249	40.717	23.653	O.2	1	RES1	0.000	
13	 C34	35.037	38.934	26.179	C.2	1	RES1	0.000	
14	 C35	34.094	38.506	25.214	C.2	1	RES1	0.000	
15	 C36	34.833	37.191	23.260	C.2	1	RES1	0.000	
16	 C37	34.735	35.931	24.074	C.3	1	RES1	0.000	
17	 C38	35.219	37.173	21.980	C.2	1	RES1	0.000	
18	 C39	35.324	38.355	21.210	C.2	1	RES1	0.000	
19	 C40	36.079	36.815	19.583	C.3	1	RES1	0.000	
20	 C41	36.730	36.804	18.253	C.2	1	RES1	0.000	
21	 C42	35.989	36.573	17.068	C.2	1	RES1	0.000	
22	 C43	36.625	36.553	15.837	C.2	1	RES1	0.000	
23	 C44	37.999	36.802	15.750	C.2	1	RES1	0.000	
24	 C45	38.740	37.053	16.893	C.2	1	RES1	0.000	
25	 C46	38.100	37.023	18.120	C.2	1	RES1	0.000	
26	 C47	34.955	39.564	21.715	C.2	1	RES1	0.000	
27	 C48	34.541	39.633	23.150	C.2	1	RES1	0.000	
28	 BR1	35.002	41.153	20.725	Br	1	RES1	0.000	
29	  F1	38.588	36.790	14.546	 F	1	RES1	0.000	
30	  F2	38.847	37.283	19.251	 F	1	RES1	0.000	
@<TRIPOS>BOND
1 1 4 1
2 2 9 1
3 2 10 1
4 3 9 2
5 4 5 ar
6 4 14 ar
7 5 6 ar
8 6 7 ar
9 7 9 1
10 11 18 1
11 11 19 1
12 12 27 2
13 7 13 ar
14 13 14 ar
15 8 14 1
16 8 15 ar
17 15 16 1
18 15 17 ar
19 17 18 ar
20 18 26 ar
21 19 20 1
22 20 21 ar
23 20 25 ar
24 21 22 ar
25 22 23 ar
26 23 24 ar
27 24 25 ar
28 26 27 ar
29 8 27 ar
30 26 28 1
31 23 29 1
32 25 30 1
@<TRIPOS>SUBSTRUCTURE
1	RES1	1	GROUP	1 ****	RES
