# created with PyMOL 2.5.2
@<TRIPOS>MOLECULE
38_3HLL_TargetProtein
30 32 1                 
SMALL
USER_CHARGES
@<TRIPOS>ATOM
1	  C1	31.808	37.637	24.636	C.3	1	RES1	0.000	
2	  N1	35.601	38.872	29.819	N.pl3	1	RES1	0.000	
3	  O1	36.529	40.281	28.256	O.2	1	RES1	0.000	
4	  C2	32.829	38.141	25.595	C.2	1	RES1	0.000	
5	  C3	32.470	38.175	26.977	C.2	1	RES1	0.000	
6	  C4	33.420	38.613	27.911	C.2	1	RES1	0.000	
7	  C5	34.695	39.005	27.518	C.2	1	RES1	0.000	
8	  C6	35.679	39.429	28.554	C.2	1	RES1	0.000	
9	  C7	36.497	39.198	30.861	C.3	1	RES1	0.000	
10	  N8	34.522	38.472	23.824	N.2	1	RES1	0.000	
11	  O9	35.636	38.288	19.846	O.3	1	RES1	0.000	
12	 O10	34.207	40.775	23.636	O.2	1	RES1	0.000	
13	 C34	35.066	38.935	26.161	C.2	1	RES1	0.000	
14	 C35	34.123	38.525	25.227	C.2	1	RES1	0.000	
15	 C36	34.854	37.277	23.220	C.2	1	RES1	0.000	
16	 C37	34.788	35.985	24.016	C.3	1	RES1	0.000	
17	 C38	35.226	37.235	21.948	C.2	1	RES1	0.000	
18	 C39	35.291	38.474	21.173	C.2	1	RES1	0.000	
19	 C40	36.047	36.911	19.606	C.3	1	RES1	0.000	
20	 C41	36.704	36.851	18.250	C.2	1	RES1	0.000	
21	 C42	35.995	36.561	17.096	C.2	1	RES1	0.000	
22	 C43	36.609	36.475	15.845	C.2	1	RES1	0.000	
23	 C44	37.999	36.674	15.760	C.2	1	RES1	0.000	
24	 C45	38.750	36.974	16.902	C.2	1	RES1	0.000	
25	 C46	38.108	37.026	18.149	C.2	1	RES1	0.000	
26	 C47	34.945	39.655	21.689	C.2	1	RES1	0.000	
27	 C48	34.522	39.718	23.143	C.2	1	RES1	0.000	
28	 BR1	34.930	41.241	20.706	Br	1	RES1	0.000	
29	  F1	38.620	36.610	14.583	 F	1	RES1	0.000	
30	  F2	38.840	37.291	19.226	 F	1	RES1	0.000	
@<TRIPOS>BOND
1 1 4 1
2 2 8 1
3 2 9 1
4 3 8 2
5 4 5 ar
6 4 14 ar
7 5 6 ar
8 6 7 ar
9 7 8 1
10 12 27 2
11 7 13 ar
12 13 14 ar
13 10 14 1
14 10 15 ar
15 15 16 1
16 15 17 ar
17 17 18 ar
18 11 18 1
19 18 26 ar
20 11 19 1
21 19 20 1
22 20 21 ar
23 20 25 ar
24 21 22 ar
25 22 23 ar
26 23 24 ar
27 24 25 ar
28 26 27 ar
29 10 27 ar
30 26 28 1
31 23 29 1
32 25 30 1
@<TRIPOS>SUBSTRUCTURE
1	RES1	1	GROUP	1 ****	RES
