# created with PyMOL 2.5.2
@<TRIPOS>MOLECULE
38_3HLL_TargetProtein
30 32 1                 
SMALL
USER_CHARGES
@<TRIPOS>ATOM
1	  C1	31.789	37.696	24.663	C.3	1	RES1	0.000	
2	  N1	35.560	38.885	29.819	N.pl3	1	RES1	0.000	
3	  O1	36.613	40.217	28.275	O.2	1	RES1	0.000	
4	  C2	32.850	38.181	25.627	C.2	1	RES1	0.000	
5	  C3	32.555	38.253	26.986	C.2	1	RES1	0.000	
6	  C4	33.466	38.676	27.909	C.2	1	RES1	0.000	
7	  C5	34.780	39.002	27.490	C.2	1	RES1	0.000	
8	  C6	35.753	39.441	28.534	C.2	1	RES1	0.000	
9	  C7	36.412	39.211	30.916	C.3	1	RES1	0.000	
10	  N8	34.500	38.454	23.828	N.2	1	RES1	0.000	
11	 O10	35.564	38.189	19.793	O.3	1	RES1	0.000	
12	 O11	34.250	40.732	23.604	O.2	1	RES1	0.000	
13	 C36	35.103	38.955	26.120	C.2	1	RES1	0.000	
14	 C37	34.134	38.529	25.214	C.2	1	RES1	0.000	
15	 C38	34.796	37.239	23.225	C.2	1	RES1	0.000	
16	 C39	34.754	35.955	24.046	C.3	1	RES1	0.000	
17	 C40	35.127	37.177	21.938	C.2	1	RES1	0.000	
18	 C41	35.142	38.381	21.125	C.2	1	RES1	0.000	
19	 C42	36.018	36.844	19.604	C.3	1	RES1	0.000	
20	 C43	36.727	36.785	18.272	C.2	1	RES1	0.000	
21	 C44	36.010	36.470	17.090	C.2	1	RES1	0.000	
22	 C45	36.681	36.442	15.889	C.2	1	RES1	0.000	
23	 C46	38.036	36.746	15.799	C.2	1	RES1	0.000	
24	 C47	38.756	37.115	16.960	C.2	1	RES1	0.000	
25	 C48	38.076	37.109	18.170	C.2	1	RES1	0.000	
26	 C49	34.903	39.606	21.646	C.2	1	RES1	0.000	
27	 C50	34.509	39.663	23.090	C.2	1	RES1	0.000	
28	 BR1	35.001	41.171	20.658	Br	1	RES1	0.000	
29	  F1	38.673	36.737	14.598	 F	1	RES1	0.000	
30	  F2	38.772	37.439	19.245	 F	1	RES1	0.000	
@<TRIPOS>BOND
1 1 4 1
2 2 8 1
3 2 9 1
4 3 8 2
5 4 5 ar
6 4 14 ar
7 5 6 ar
8 6 7 ar
9 7 8 1
10 11 18 1
11 11 19 1
12 12 27 2
13 7 13 ar
14 13 14 ar
15 10 14 1
16 10 15 ar
17 15 16 1
18 15 17 ar
19 17 18 ar
20 18 26 ar
21 19 20 1
22 20 21 ar
23 20 25 ar
24 21 22 ar
25 22 23 ar
26 23 24 ar
27 24 25 ar
28 26 27 ar
29 10 27 ar
30 26 28 1
31 23 29 1
32 25 30 1
@<TRIPOS>SUBSTRUCTURE
1	RES1	1	GROUP	1 ****	RES
