# created with PyMOL 2.5.2
@<TRIPOS>MOLECULE
38_3HLL_TargetProtein
30 32 1                 
SMALL
USER_CHARGES
@<TRIPOS>ATOM
1	  C1	31.777	37.725	24.621	C.3	1	RES1	0.000	
2	  N1	35.496	38.904	29.819	N.pl3	1	RES1	0.000	
3	  O1	36.563	40.297	28.326	O.2	1	RES1	0.000	
4	  C2	32.833	38.165	25.624	C.2	1	RES1	0.000	
5	  C3	32.512	38.233	26.975	C.2	1	RES1	0.000	
6	  C4	33.442	38.683	27.908	C.2	1	RES1	0.000	
7	  C5	34.725	39.041	27.491	C.2	1	RES1	0.000	
8	  C6	35.688	39.488	28.563	C.2	1	RES1	0.000	
9	  C7	36.349	39.225	30.934	C.3	1	RES1	0.000	
10	  N9	34.502	38.438	23.854	N.2	1	RES1	0.000	
11	  O9	35.659	38.189	19.832	O.3	1	RES1	0.000	
12	 O10	34.298	40.741	23.660	O.2	1	RES1	0.000	
13	 C36	35.075	38.956	26.147	C.2	1	RES1	0.000	
14	 C37	34.146	38.494	25.232	C.2	1	RES1	0.000	
15	 C38	34.873	37.229	23.270	C.2	1	RES1	0.000	
16	 C39	34.801	35.952	24.079	C.3	1	RES1	0.000	
17	 C40	35.233	37.171	21.962	C.2	1	RES1	0.000	
18	 C41	35.312	38.352	21.201	C.2	1	RES1	0.000	
19	 C42	36.044	36.849	19.571	C.3	1	RES1	0.000	
20	 C43	36.708	36.826	18.222	C.2	1	RES1	0.000	
21	 C44	35.987	36.589	17.055	C.2	1	RES1	0.000	
22	 C45	36.621	36.529	15.817	C.2	1	RES1	0.000	
23	 C46	37.982	36.748	15.727	C.2	1	RES1	0.000	
24	 C47	38.708	37.004	16.888	C.2	1	RES1	0.000	
25	 C48	38.100	37.064	18.109	C.2	1	RES1	0.000	
26	 C49	34.946	39.560	21.673	C.2	1	RES1	0.000	
27	 C50	34.559	39.633	23.140	C.2	1	RES1	0.000	
28	 BR1	34.959	41.163	20.686	Br	1	RES1	0.000	
29	  F1	38.583	36.725	14.539	 F	1	RES1	0.000	
30	  F2	38.830	37.331	19.210	 F	1	RES1	0.000	
@<TRIPOS>BOND
1 1 4 1
2 2 8 1
3 2 9 1
4 3 8 2
5 4 5 ar
6 4 14 ar
7 5 6 ar
8 6 7 ar
9 7 8 1
10 12 27 2
11 7 13 ar
12 13 14 ar
13 10 14 1
14 10 15 ar
15 15 16 1
16 15 17 ar
17 17 18 ar
18 11 18 1
19 18 26 ar
20 11 19 1
21 19 20 1
22 20 21 ar
23 20 25 ar
24 21 22 ar
25 22 23 ar
26 23 24 ar
27 24 25 ar
28 26 27 ar
29 10 27 ar
30 26 28 1
31 23 29 1
32 25 30 1
@<TRIPOS>SUBSTRUCTURE
1	RES1	1	GROUP	1 ****	RES
