# created with PyMOL 2.5.2
@<TRIPOS>MOLECULE
38_3HLL_TargetProtein
30 32 1                 
SMALL
USER_CHARGES
@<TRIPOS>ATOM
1	  C1	31.747	37.698	24.617	C.3	1	RES1	0.000	
2	  N1	35.630	38.961	29.788	N.pl3	1	RES1	0.000	
3	  O1	36.543	40.272	28.140	O.2	1	RES1	0.000	
4	  C2	32.772	38.144	25.627	C.2	1	RES1	0.000	
5	  C3	32.460	38.252	26.973	C.2	1	RES1	0.000	
6	  C4	33.376	38.671	27.923	C.2	1	RES1	0.000	
7	  C5	34.677	39.020	27.531	C.2	1	RES1	0.000	
8	  C6	35.714	39.476	28.507	C.2	1	RES1	0.000	
9	  C7	36.560	39.317	30.828	C.3	1	RES1	0.000	
10	  N9	34.474	38.413	23.852	N.2	1	RES1	0.000	
11	 O10	35.674	38.198	19.869	O.3	1	RES1	0.000	
12	 O11	34.299	40.724	23.665	O.2	1	RES1	0.000	
13	 C37	35.035	38.923	26.157	C.2	1	RES1	0.000	
14	 C38	34.106	38.497	25.213	C.2	1	RES1	0.000	
15	 C39	34.808	37.207	23.265	C.2	1	RES1	0.000	
16	 C40	34.696	35.908	24.056	C.3	1	RES1	0.000	
17	 C41	35.187	37.145	21.988	C.2	1	RES1	0.000	
18	 C42	35.303	38.372	21.203	C.2	1	RES1	0.000	
19	 C43	36.050	36.832	19.602	C.3	1	RES1	0.000	
20	 C44	36.724	36.805	18.230	C.2	1	RES1	0.000	
21	 C45	35.986	36.562	17.071	C.2	1	RES1	0.000	
22	 C46	36.626	36.586	15.841	C.2	1	RES1	0.000	
23	 C47	37.990	36.810	15.777	C.2	1	RES1	0.000	
24	 C48	38.743	37.046	16.910	C.2	1	RES1	0.000	
25	 C49	38.122	37.037	18.128	C.2	1	RES1	0.000	
26	 C50	34.989	39.560	21.701	C.2	1	RES1	0.000	
27	 C51	34.559	39.624	23.153	C.2	1	RES1	0.000	
28	 BR1	35.041	41.175	20.718	Br	1	RES1	0.000	
29	  F1	38.608	36.794	14.555	 F	1	RES1	0.000	
30	  F2	38.812	37.278	19.246	 F	1	RES1	0.000	
@<TRIPOS>BOND
1 1 4 1
2 2 8 1
3 2 9 1
4 3 8 2
5 4 5 ar
6 4 14 ar
7 5 6 ar
8 6 7 ar
9 7 8 1
10 11 18 1
11 11 19 1
12 12 27 2
13 7 13 ar
14 13 14 ar
15 10 14 1
16 10 15 ar
17 15 16 1
18 15 17 ar
19 17 18 ar
20 18 26 ar
21 19 20 1
22 20 21 ar
23 20 25 ar
24 21 22 ar
25 22 23 ar
26 23 24 ar
27 24 25 ar
28 26 27 ar
29 10 27 ar
30 26 28 1
31 23 29 1
32 25 30 1
@<TRIPOS>SUBSTRUCTURE
1	RES1	1	GROUP	1 ****	RES
