# created with PyMOL 2.5.2
@<TRIPOS>MOLECULE
38_3HLL_TargetProtein
30 32 1                 
SMALL
USER_CHARGES
@<TRIPOS>ATOM
1	  C1	31.773	37.713	24.638	C.3	1	RES1	0.000	
2	  N1	35.519	38.922	29.833	N.pl3	1	RES1	0.000	
3	  O1	36.539	40.305	28.270	O.2	1	RES1	0.000	
4	  C2	32.818	38.137	25.610	C.2	1	RES1	0.000	
5	  C3	32.489	38.237	26.982	C.2	1	RES1	0.000	
6	  C4	33.437	38.651	27.889	C.2	1	RES1	0.000	
7	  C5	34.734	38.995	27.506	C.2	1	RES1	0.000	
8	  C6	35.696	39.458	28.546	C.2	1	RES1	0.000	
9	  C7	36.397	39.302	30.928	C.3	1	RES1	0.000	
10	  O7	35.648	38.234	19.845	O.3	1	RES1	0.000	
11	  N8	34.514	38.425	23.851	N.2	1	RES1	0.000	
12	  O8	34.269	40.758	23.664	O.2	1	RES1	0.000	
13	 C36	35.069	38.920	26.159	C.2	1	RES1	0.000	
14	 C37	34.125	38.496	25.249	C.2	1	RES1	0.000	
15	 C38	34.855	37.217	23.258	C.2	1	RES1	0.000	
16	 C39	34.798	35.914	24.042	C.3	1	RES1	0.000	
17	 C40	35.229	37.208	21.945	C.2	1	RES1	0.000	
18	 C41	35.295	38.401	21.193	C.2	1	RES1	0.000	
19	 C42	36.063	36.880	19.562	C.3	1	RES1	0.000	
20	 C43	36.733	36.853	18.224	C.2	1	RES1	0.000	
21	 C44	35.976	36.591	17.053	C.2	1	RES1	0.000	
22	 C45	36.593	36.526	15.836	C.2	1	RES1	0.000	
23	 C46	37.995	36.762	15.737	C.2	1	RES1	0.000	
24	 C47	38.730	37.010	16.859	C.2	1	RES1	0.000	
25	 C48	38.101	37.034	18.097	C.2	1	RES1	0.000	
26	 C49	34.962	39.592	21.718	C.2	1	RES1	0.000	
27	 C50	34.541	39.641	23.152	C.2	1	RES1	0.000	
28	 BR1	34.961	41.194	20.722	Br	1	RES1	0.000	
29	  F1	38.606	36.654	14.555	 F	1	RES1	0.000	
30	  F2	38.846	37.279	19.209	 F	1	RES1	0.000	
@<TRIPOS>BOND
1 1 4 1
2 2 8 1
3 2 9 1
4 3 8 2
5 4 5 ar
6 4 14 ar
7 5 6 ar
8 6 7 ar
9 7 8 1
10 7 13 ar
11 13 14 ar
12 11 14 1
13 11 15 ar
14 15 16 1
15 15 17 ar
16 17 18 ar
17 10 18 1
18 18 26 ar
19 10 19 1
20 19 20 1
21 20 21 ar
22 20 25 ar
23 21 22 ar
24 22 23 ar
25 23 24 ar
26 24 25 ar
27 26 27 ar
28 11 27 ar
29 12 27 2
30 26 28 1
31 23 29 1
32 25 30 1
@<TRIPOS>SUBSTRUCTURE
1	RES1	1	GROUP	1 ****	RES
