# created with PyMOL 2.5.2
@<TRIPOS>MOLECULE
38_3HLL_TargetProtein
30 32 1                 
SMALL
USER_CHARGES
@<TRIPOS>ATOM
1	  C1	31.747	37.736	24.630	C.3	1	RES1	0.000	
2	  N1	35.533	38.914	29.804	N.pl3	1	RES1	0.000	
3	  O1	36.565	40.295	28.278	O.2	1	RES1	0.000	
4	  C2	32.814	38.183	25.614	C.2	1	RES1	0.000	
5	  C3	32.476	38.280	26.974	C.2	1	RES1	0.000	
6	  C4	33.421	38.663	27.917	C.2	1	RES1	0.000	
7	  C5	34.711	39.035	27.517	C.2	1	RES1	0.000	
8	  C6	35.674	39.474	28.550	C.2	1	RES1	0.000	
9	  C7	36.410	39.243	30.898	C.3	1	RES1	0.000	
10	  O7	35.678	38.193	19.836	O.3	1	RES1	0.000	
11	  N8	34.520	38.416	23.873	N.2	1	RES1	0.000	
12	  O8	34.278	40.739	23.622	O.2	1	RES1	0.000	
13	 C35	35.068	38.945	26.150	C.2	1	RES1	0.000	
14	 C36	34.121	38.517	25.216	C.2	1	RES1	0.000	
15	 C37	34.856	37.201	23.253	C.2	1	RES1	0.000	
16	 C38	34.801	35.939	24.050	C.3	1	RES1	0.000	
17	 C39	35.238	37.179	21.987	C.2	1	RES1	0.000	
18	 C40	35.334	38.349	21.191	C.2	1	RES1	0.000	
19	 C41	36.056	36.835	19.581	C.3	1	RES1	0.000	
20	 C42	36.712	36.798	18.242	C.2	1	RES1	0.000	
21	 C43	35.978	36.552	17.068	C.2	1	RES1	0.000	
22	 C44	36.618	36.540	15.846	C.2	1	RES1	0.000	
23	 C45	37.971	36.789	15.728	C.2	1	RES1	0.000	
24	 C46	38.718	37.052	16.880	C.2	1	RES1	0.000	
25	 C47	38.082	37.059	18.117	C.2	1	RES1	0.000	
26	 C48	34.979	39.555	21.704	C.2	1	RES1	0.000	
27	 C49	34.558	39.624	23.154	C.2	1	RES1	0.000	
28	 BR1	34.982	41.142	20.695	Br	1	RES1	0.000	
29	  F1	38.591	36.770	14.541	 F	1	RES1	0.000	
30	  F2	38.819	37.288	19.216	 F	1	RES1	0.000	
@<TRIPOS>BOND
1 1 4 1
2 2 8 1
3 2 9 1
4 3 8 2
5 4 5 ar
6 4 14 ar
7 5 6 ar
8 6 7 ar
9 7 8 1
10 7 13 ar
11 13 14 ar
12 11 14 1
13 11 15 ar
14 15 16 1
15 15 17 ar
16 17 18 ar
17 10 18 1
18 18 26 ar
19 10 19 1
20 19 20 1
21 20 21 ar
22 20 25 ar
23 21 22 ar
24 22 23 ar
25 23 24 ar
26 24 25 ar
27 26 27 ar
28 11 27 ar
29 12 27 2
30 26 28 1
31 23 29 1
32 25 30 1
@<TRIPOS>SUBSTRUCTURE
1	RES1	1	GROUP	1 ****	RES
