# created with PyMOL 2.5.2
@<TRIPOS>MOLECULE
BRD4_6C7R_TargetProtein
35 40 1                 
SMALL
USER_CHARGES
@<TRIPOS>ATOM
1	  C1	-2.420	9.096	26.475	C.3	1	RES1	0.000	
2	  N1	-1.841	8.442	24.157	N.2	1	RES1	0.000	
3	  O1	5.685	5.300	25.858	O.2	1	RES1	0.000	
4	  C2	-2.580	8.054	25.374	C.3	1	RES1	0.000	
5	  N2	-2.513	8.990	23.132	N.2	1	RES1	0.000	
6	  C3	-1.575	9.193	22.204	C.2	1	RES1	0.000	
7	  N3	0.351	7.718	24.872	N.pl3	1	RES1	0.000	
8	  C4	-1.889	9.807	20.847	C.3	1	RES1	0.000	
9	  N4	2.523	6.802	25.390	N.2	1	RES1	0.000	
10	  C5	-2.947	10.902	20.731	C.3	1	RES1	0.000	
11	  C6	-3.228	9.532	20.199	C.3	1	RES1	0.000	
12	  O6	-3.094	5.364	21.055	O.3	1	RES1	0.000	
13	  C7	-0.306	8.755	22.641	C.2	1	RES1	0.000	
14	  O7	-2.429	2.282	17.788	O.2	1	RES1	0.000	
15	  C8	-0.486	8.261	23.899	C.2	1	RES1	0.000	
16	  N8	3.480	4.906	24.250	N.2	1	RES1	0.000	
17	  C9	1.357	6.775	24.665	C.2	1	RES1	0.000	
18	  N9	-3.490	1.942	18.624	N.2	1	RES1	0.000	
19	 C10	3.499	5.905	25.136	C.2	1	RES1	0.000	
20	 N10	2.018	3.967	22.604	N.2	1	RES1	0.000	
21	 C11	4.724	6.056	25.957	C.2	1	RES1	0.000	
22	 C30	2.306	4.893	23.574	C.2	1	RES1	0.000	
23	 C31	1.235	5.727	23.727	C.2	1	RES1	0.000	
24	 C32	0.233	5.280	22.763	C.2	1	RES1	0.000	
25	 C33	-1.060	5.685	22.442	C.2	1	RES1	0.000	
26	 C34	-1.814	5.000	21.464	C.2	1	RES1	0.000	
27	 C35	-3.747	6.381	21.819	C.3	1	RES1	0.000	
28	 C36	-1.209	3.913	20.788	C.2	1	RES1	0.000	
29	 C37	-1.966	3.153	19.774	C.2	1	RES1	0.000	
30	 C38	-1.535	3.018	18.479	C.2	1	RES1	0.000	
31	 C39	-0.359	3.479	17.684	C.3	1	RES1	0.000	
32	 C40	-3.200	2.474	19.811	C.2	1	RES1	0.000	
33	 C41	-4.093	2.295	20.984	C.3	1	RES1	0.000	
34	 C42	0.065	3.465	21.131	C.2	1	RES1	0.000	
35	 C43	0.763	4.173	22.106	C.2	1	RES1	0.000	
@<TRIPOS>BOND
1 1 4 1
2 2 4 1
3 2 5 ar
4 2 15 ar
5 3 21 2
6 5 6 ar
7 6 8 1
8 6 13 ar
9 7 15 1
10 7 17 1
11 8 10 1
12 8 11 1
13 9 17 ar
14 10 11 1
15 13 15 ar
16 14 18 ar
17 9 19 ar
18 16 19 ar
19 19 21 1
20 20 22 ar
21 20 35 ar
22 16 22 ar
23 22 23 ar
24 17 23 ar
25 23 24 ar
26 24 25 ar
27 24 35 ar
28 25 26 ar
29 12 26 1
30 26 28 ar
31 12 27 1
32 28 29 1
33 28 34 ar
34 29 30 ar
35 29 32 ar
36 14 30 ar
37 30 31 1
38 18 32 ar
39 32 33 1
40 34 35 ar
@<TRIPOS>SUBSTRUCTURE
1	RES1	1	GROUP	1 ****	RES
