# created with PyMOL 2.5.2
@<TRIPOS>MOLECULE
38_3HLL_TargetProtein
30 32 1                 
SMALL
USER_CHARGES
@<TRIPOS>ATOM
1	  C1	31.736	37.725	24.635	C.3	1	RES1	0.000	
2	  N1	35.648	38.954	29.774	N.pl3	1	RES1	0.000	
3	  O1	36.582	40.247	28.115	O.2	1	RES1	0.000	
4	  C2	32.780	38.173	25.637	C.2	1	RES1	0.000	
5	  C3	32.441	38.252	26.976	C.2	1	RES1	0.000	
6	  C4	33.371	38.685	27.914	C.2	1	RES1	0.000	
7	  C5	34.668	39.015	27.510	C.2	1	RES1	0.000	
8	  C6	35.741	39.472	28.491	C.2	1	RES1	0.000	
9	  C7	36.602	39.290	30.782	C.3	1	RES1	0.000	
10	  O7	35.612	38.171	19.839	O.3	1	RES1	0.000	
11	  O8	34.303	40.725	23.648	O.2	1	RES1	0.000	
12	  N9	34.468	38.426	23.842	N.2	1	RES1	0.000	
13	 C30	35.035	38.908	26.163	C.2	1	RES1	0.000	
14	 C31	34.085	38.491	25.221	C.2	1	RES1	0.000	
15	 C32	34.794	37.178	23.270	C.2	1	RES1	0.000	
16	 C33	34.718	35.904	24.078	C.3	1	RES1	0.000	
17	 C34	35.140	37.144	21.955	C.2	1	RES1	0.000	
18	 C35	35.199	38.353	21.158	C.2	1	RES1	0.000	
19	 C36	36.048	36.841	19.606	C.3	1	RES1	0.000	
20	 C37	36.748	36.813	18.271	C.2	1	RES1	0.000	
21	 C38	36.022	36.536	17.107	C.2	1	RES1	0.000	
22	 C39	36.641	36.538	15.864	C.2	1	RES1	0.000	
23	 C40	38.008	36.800	15.799	C.2	1	RES1	0.000	
24	 C41	38.749	37.095	16.921	C.2	1	RES1	0.000	
25	 C42	38.105	37.090	18.154	C.2	1	RES1	0.000	
26	 C43	34.983	39.567	21.679	C.2	1	RES1	0.000	
27	 C44	34.561	39.615	23.152	C.2	1	RES1	0.000	
28	 BR1	35.101	41.156	20.713	Br	1	RES1	0.000	
29	  F1	38.612	36.794	14.598	 F	1	RES1	0.000	
30	  F2	38.809	37.347	19.261	 F	1	RES1	0.000	
@<TRIPOS>BOND
1 1 4 1
2 2 8 1
3 2 9 1
4 3 8 2
5 4 5 ar
6 4 14 ar
7 5 6 ar
8 6 7 ar
9 7 8 1
10 7 13 ar
11 13 14 ar
12 12 14 1
13 12 15 ar
14 15 16 1
15 15 17 ar
16 17 18 ar
17 10 18 1
18 18 26 ar
19 10 19 1
20 19 20 1
21 20 21 ar
22 20 25 ar
23 21 22 ar
24 22 23 ar
25 23 24 ar
26 24 25 ar
27 26 27 ar
28 11 27 2
29 12 27 ar
30 26 28 1
31 23 29 1
32 25 30 1
@<TRIPOS>SUBSTRUCTURE
1	RES1	1	GROUP	1 ****	RES
