# created with PyMOL 2.5.2
@<TRIPOS>MOLECULE
38_3HLL_TargetProtein
30 32 1                 
SMALL
USER_CHARGES
@<TRIPOS>ATOM
1	  C1	31.759	37.723	24.605	C.3	1	RES1	0.000	
2	  N1	35.575	38.924	29.839	N.pl3	1	RES1	0.000	
3	  O1	36.551	40.255	28.215	O.2	1	RES1	0.000	
4	  C2	32.804	38.143	25.618	C.2	1	RES1	0.000	
5	  C3	32.463	38.247	26.970	C.2	1	RES1	0.000	
6	  C4	33.405	38.649	27.911	C.2	1	RES1	0.000	
7	  C5	34.700	38.986	27.537	C.2	1	RES1	0.000	
8	  C6	35.692	39.431	28.567	C.2	1	RES1	0.000	
9	  C7	36.470	39.286	30.895	C.3	1	RES1	0.000	
10	  O7	35.642	38.263	19.854	O.3	1	RES1	0.000	
11	  O8	34.232	40.745	23.658	O.2	1	RES1	0.000	
12	  N9	34.496	38.444	23.866	N.2	1	RES1	0.000	
13	 C31	35.078	38.918	26.177	C.2	1	RES1	0.000	
14	 C32	34.121	38.485	25.230	C.2	1	RES1	0.000	
15	 C33	34.850	37.210	23.250	C.2	1	RES1	0.000	
16	 C34	34.819	35.943	24.055	C.3	1	RES1	0.000	
17	 C35	35.242	37.217	21.960	C.2	1	RES1	0.000	
18	 C36	35.289	38.423	21.199	C.2	1	RES1	0.000	
19	 C37	36.076	36.927	19.565	C.3	1	RES1	0.000	
20	 C38	36.747	36.890	18.219	C.2	1	RES1	0.000	
21	 C39	35.997	36.606	17.065	C.2	1	RES1	0.000	
22	 C40	36.609	36.529	15.832	C.2	1	RES1	0.000	
23	 C41	38.007	36.702	15.728	C.2	1	RES1	0.000	
24	 C42	38.765	36.964	16.865	C.2	1	RES1	0.000	
25	 C43	38.121	37.039	18.113	C.2	1	RES1	0.000	
26	 C44	34.915	39.598	21.716	C.2	1	RES1	0.000	
27	 C45	34.522	39.666	23.157	C.2	1	RES1	0.000	
28	 BR1	34.920	41.200	20.728	Br	1	RES1	0.000	
29	  F1	38.605	36.613	14.533	 F	1	RES1	0.000	
30	  F2	38.839	37.281	19.203	 F	1	RES1	0.000	
@<TRIPOS>BOND
1 1 4 1
2 2 8 1
3 2 9 1
4 3 8 2
5 4 5 ar
6 4 14 ar
7 5 6 ar
8 6 7 ar
9 7 8 1
10 7 13 ar
11 13 14 ar
12 12 14 1
13 12 15 ar
14 15 16 1
15 15 17 ar
16 17 18 ar
17 10 18 1
18 18 26 ar
19 10 19 1
20 19 20 1
21 20 21 ar
22 20 25 ar
23 21 22 ar
24 22 23 ar
25 23 24 ar
26 24 25 ar
27 26 27 ar
28 11 27 2
29 12 27 ar
30 26 28 1
31 23 29 1
32 25 30 1
@<TRIPOS>SUBSTRUCTURE
1	RES1	1	GROUP	1 ****	RES
