# created with PyMOL 2.5.2
@<TRIPOS>MOLECULE
38_3HLL_TargetProtein
30 32 1                 
SMALL
USER_CHARGES
@<TRIPOS>ATOM
1	  C1	31.722	37.748	24.672	C.3	1	RES1	0.000	
2	  N1	35.642	38.911	29.783	N.pl3	1	RES1	0.000	
3	  O1	36.621	40.224	28.161	O.2	1	RES1	0.000	
4	  C2	32.795	38.183	25.650	C.2	1	RES1	0.000	
5	  C3	32.476	38.229	27.007	C.2	1	RES1	0.000	
6	  C4	33.452	38.636	27.922	C.2	1	RES1	0.000	
7	  C5	34.741	38.990	27.512	C.2	1	RES1	0.000	
8	  C6	35.737	39.433	28.514	C.2	1	RES1	0.000	
9	  C7	36.553	39.276	30.820	C.3	1	RES1	0.000	
10	  O7	35.533	38.241	19.825	O.3	1	RES1	0.000	
11	  O8	34.248	40.739	23.650	O.2	1	RES1	0.000	
12	  N9	34.463	38.416	23.856	N.2	1	RES1	0.000	
13	 C32	35.055	38.925	26.139	C.2	1	RES1	0.000	
14	 C33	34.092	38.483	25.215	C.2	1	RES1	0.000	
15	 C34	34.790	37.222	23.246	C.2	1	RES1	0.000	
16	 C35	34.794	35.951	24.035	C.3	1	RES1	0.000	
17	 C36	35.132	37.192	21.926	C.2	1	RES1	0.000	
18	 C37	35.133	38.393	21.135	C.2	1	RES1	0.000	
19	 C38	36.037	36.910	19.575	C.3	1	RES1	0.000	
20	 C39	36.719	36.876	18.246	C.2	1	RES1	0.000	
21	 C40	36.014	36.548	17.065	C.2	1	RES1	0.000	
22	 C41	36.697	36.482	15.862	C.2	1	RES1	0.000	
23	 C42	38.071	36.719	15.811	C.2	1	RES1	0.000	
24	 C43	38.791	37.034	16.923	C.2	1	RES1	0.000	
25	 C44	38.128	37.101	18.151	C.2	1	RES1	0.000	
26	 C45	34.885	39.588	21.673	C.2	1	RES1	0.000	
27	 C46	34.505	39.647	23.149	C.2	1	RES1	0.000	
28	 BR1	34.971	41.181	20.729	Br	1	RES1	0.000	
29	  F1	38.702	36.636	14.622	 F	1	RES1	0.000	
30	  F2	38.814	37.390	19.262	 F	1	RES1	0.000	
@<TRIPOS>BOND
1 1 4 1
2 2 8 1
3 2 9 1
4 3 8 2
5 4 5 ar
6 4 14 ar
7 5 6 ar
8 6 7 ar
9 7 8 1
10 7 13 ar
11 13 14 ar
12 12 14 1
13 12 15 ar
14 15 16 1
15 15 17 ar
16 17 18 ar
17 10 18 1
18 18 26 ar
19 10 19 1
20 19 20 1
21 20 21 ar
22 20 25 ar
23 21 22 ar
24 22 23 ar
25 23 24 ar
26 24 25 ar
27 26 27 ar
28 11 27 2
29 12 27 ar
30 26 28 1
31 23 29 1
32 25 30 1
@<TRIPOS>SUBSTRUCTURE
1	RES1	1	GROUP	1 ****	RES
