# created with PyMOL 2.5.2
@<TRIPOS>MOLECULE
38_3HLL_TargetProtein
30 32 1                 
SMALL
USER_CHARGES
@<TRIPOS>ATOM
1	  C1	31.696	37.730	24.674	C.3	1	RES1	0.000	
2	  N1	35.678	38.926	29.757	N.pl3	1	RES1	0.000	
3	  O1	36.623	40.223	28.104	O.2	1	RES1	0.000	
4	  C2	32.763	38.157	25.629	C.2	1	RES1	0.000	
5	  C3	32.458	38.284	27.001	C.2	1	RES1	0.000	
6	  C4	33.424	38.694	27.921	C.2	1	RES1	0.000	
7	  C5	34.697	39.005	27.525	C.2	1	RES1	0.000	
8	  C6	35.769	39.444	28.471	C.2	1	RES1	0.000	
9	  C7	36.625	39.236	30.770	C.3	1	RES1	0.000	
10	  O7	35.571	38.222	19.847	O.3	1	RES1	0.000	
11	  O8	34.252	40.731	23.658	O.2	1	RES1	0.000	
12	  N9	34.459	38.408	23.854	N.2	1	RES1	0.000	
13	 C32	35.018	38.916	26.161	C.2	1	RES1	0.000	
14	 C33	34.064	38.494	25.217	C.2	1	RES1	0.000	
15	 C34	34.776	37.199	23.236	C.2	1	RES1	0.000	
16	 C35	34.769	35.932	24.064	C.3	1	RES1	0.000	
17	 C36	35.124	37.173	21.959	C.2	1	RES1	0.000	
18	 C37	35.151	38.360	21.158	C.2	1	RES1	0.000	
19	 C38	36.054	36.886	19.597	C.3	1	RES1	0.000	
20	 C39	36.762	36.868	18.264	C.2	1	RES1	0.000	
21	 C40	36.039	36.565	17.066	C.2	1	RES1	0.000	
22	 C41	36.672	36.513	15.856	C.2	1	RES1	0.000	
23	 C42	38.053	36.728	15.809	C.2	1	RES1	0.000	
24	 C43	38.795	37.051	16.936	C.2	1	RES1	0.000	
25	 C44	38.100	37.092	18.156	C.2	1	RES1	0.000	
26	 C45	34.904	39.585	21.695	C.2	1	RES1	0.000	
27	 C46	34.494	39.639	23.149	C.2	1	RES1	0.000	
28	 BR1	34.997	41.182	20.722	Br	1	RES1	0.000	
29	  F1	38.683	36.705	14.594	 F	1	RES1	0.000	
30	  F2	38.841	37.358	19.284	 F	1	RES1	0.000	
@<TRIPOS>BOND
1 1 4 1
2 2 8 1
3 2 9 1
4 3 8 2
5 4 5 ar
6 4 14 ar
7 5 6 ar
8 6 7 ar
9 7 8 1
10 7 13 ar
11 13 14 ar
12 12 14 1
13 12 15 ar
14 15 16 1
15 15 17 ar
16 17 18 ar
17 10 18 1
18 18 26 ar
19 10 19 1
20 19 20 1
21 20 21 ar
22 20 25 ar
23 21 22 ar
24 22 23 ar
25 23 24 ar
26 24 25 ar
27 26 27 ar
28 11 27 2
29 12 27 ar
30 26 28 1
31 23 29 1
32 25 30 1
@<TRIPOS>SUBSTRUCTURE
1	RES1	1	GROUP	1 ****	RES
