# created with PyMOL 2.5.2
@<TRIPOS>MOLECULE
38_3HLL_TargetProtein
30 32 1                 
SMALL
USER_CHARGES
@<TRIPOS>ATOM
1	  C1	31.782	37.668	24.644	C.3	1	RES1	0.000	
2	  N1	35.524	38.968	29.838	N.pl3	1	RES1	0.000	
3	  O1	36.555	40.274	28.243	O.2	1	RES1	0.000	
4	  C2	32.834	38.153	25.613	C.2	1	RES1	0.000	
5	  C3	32.487	38.240	26.981	C.2	1	RES1	0.000	
6	  C4	33.407	38.678	27.914	C.2	1	RES1	0.000	
7	  C5	34.722	38.998	27.516	C.2	1	RES1	0.000	
8	  C6	35.689	39.465	28.553	C.2	1	RES1	0.000	
9	  C7	36.376	39.352	30.914	C.3	1	RES1	0.000	
10	  O7	35.657	38.229	19.851	O.3	1	RES1	0.000	
11	  O8	34.310	40.721	23.662	O.2	1	RES1	0.000	
12	  N9	34.510	38.399	23.856	N.2	1	RES1	0.000	
13	 C32	35.065	38.911	26.167	C.2	1	RES1	0.000	
14	 C33	34.115	38.482	25.222	C.2	1	RES1	0.000	
15	 C34	34.857	37.197	23.239	C.2	1	RES1	0.000	
16	 C35	34.757	35.922	24.020	C.3	1	RES1	0.000	
17	 C36	35.227	37.169	21.963	C.2	1	RES1	0.000	
18	 C37	35.311	38.400	21.170	C.2	1	RES1	0.000	
19	 C38	36.056	36.862	19.581	C.3	1	RES1	0.000	
20	 C39	36.746	36.838	18.233	C.2	1	RES1	0.000	
21	 C40	35.976	36.594	17.091	C.2	1	RES1	0.000	
22	 C41	36.601	36.557	15.813	C.2	1	RES1	0.000	
23	 C42	37.972	36.761	15.736	C.2	1	RES1	0.000	
24	 C43	38.722	37.009	16.876	C.2	1	RES1	0.000	
25	 C44	38.109	37.041	18.109	C.2	1	RES1	0.000	
26	 C45	34.970	39.581	21.703	C.2	1	RES1	0.000	
27	 C46	34.575	39.645	23.157	C.2	1	RES1	0.000	
28	 BR1	34.999	41.185	20.720	Br	1	RES1	0.000	
29	  F1	38.567	36.727	14.545	 F	1	RES1	0.000	
30	  F2	38.834	37.280	19.205	 F	1	RES1	0.000	
@<TRIPOS>BOND
1 1 4 1
2 2 8 1
3 2 9 1
4 3 8 2
5 4 5 ar
6 4 14 ar
7 5 6 ar
8 6 7 ar
9 7 8 1
10 7 13 ar
11 13 14 ar
12 12 14 1
13 12 15 ar
14 15 16 1
15 15 17 ar
16 17 18 ar
17 10 18 1
18 18 26 ar
19 10 19 1
20 19 20 1
21 20 21 ar
22 20 25 ar
23 21 22 ar
24 22 23 ar
25 23 24 ar
26 24 25 ar
27 26 27 ar
28 11 27 2
29 12 27 ar
30 26 28 1
31 23 29 1
32 25 30 1
@<TRIPOS>SUBSTRUCTURE
1	RES1	1	GROUP	1 ****	RES
