# created with PyMOL 2.5.2
@<TRIPOS>MOLECULE
38_3HLL_TargetProtein
30 32 1                 
SMALL
USER_CHARGES
@<TRIPOS>ATOM
1	  C1	31.734	37.699	24.664	C.3	1	RES1	0.000	
2	  N1	35.664	38.900	29.750	N.pl3	1	RES1	0.000	
3	  O1	36.557	40.306	28.140	O.2	1	RES1	0.000	
4	  C2	32.766	38.158	25.642	C.2	1	RES1	0.000	
5	  C3	32.461	38.251	26.995	C.2	1	RES1	0.000	
6	  C4	33.394	38.661	27.938	C.2	1	RES1	0.000	
7	  C5	34.669	39.032	27.517	C.2	1	RES1	0.000	
8	  C6	35.739	39.472	28.477	C.2	1	RES1	0.000	
9	  C7	36.617	39.237	30.789	C.3	1	RES1	0.000	
10	  O7	35.608	38.221	19.853	O.3	1	RES1	0.000	
11	  O8	34.258	40.740	23.648	O.2	1	RES1	0.000	
12	  N9	34.459	38.407	23.885	N.2	1	RES1	0.000	
13	 C33	35.033	38.908	26.152	C.2	1	RES1	0.000	
14	 C34	34.069	38.492	25.219	C.2	1	RES1	0.000	
15	 C35	34.793	37.194	23.241	C.2	1	RES1	0.000	
16	 C36	34.747	35.929	24.055	C.3	1	RES1	0.000	
17	 C37	35.150	37.179	21.965	C.2	1	RES1	0.000	
18	 C38	35.209	38.397	21.185	C.2	1	RES1	0.000	
19	 C39	36.061	36.875	19.574	C.3	1	RES1	0.000	
20	 C40	36.726	36.863	18.254	C.2	1	RES1	0.000	
21	 C41	36.014	36.589	17.093	C.2	1	RES1	0.000	
22	 C42	36.680	36.516	15.845	C.2	1	RES1	0.000	
23	 C43	38.026	36.758	15.786	C.2	1	RES1	0.000	
24	 C44	38.757	37.016	16.917	C.2	1	RES1	0.000	
25	 C45	38.118	37.059	18.139	C.2	1	RES1	0.000	
26	 C46	34.910	39.597	21.712	C.2	1	RES1	0.000	
27	 C47	34.542	39.644	23.148	C.2	1	RES1	0.000	
28	 BR1	35.040	41.203	20.742	Br	1	RES1	0.000	
29	  F1	38.658	36.706	14.568	 F	1	RES1	0.000	
30	  F2	38.851	37.295	19.240	 F	1	RES1	0.000	
@<TRIPOS>BOND
1 1 4 1
2 2 8 1
3 2 9 1
4 3 8 2
5 4 5 ar
6 4 14 ar
7 5 6 ar
8 6 7 ar
9 7 8 1
10 7 13 ar
11 13 14 ar
12 12 14 1
13 12 15 ar
14 15 16 1
15 15 17 ar
16 17 18 ar
17 10 18 1
18 18 26 ar
19 10 19 1
20 19 20 1
21 20 21 ar
22 20 25 ar
23 21 22 ar
24 22 23 ar
25 23 24 ar
26 24 25 ar
27 26 27 ar
28 11 27 2
29 12 27 ar
30 26 28 1
31 23 29 1
32 25 30 1
@<TRIPOS>SUBSTRUCTURE
1	RES1	1	GROUP	1 ****	RES
