# created with PyMOL 2.5.2
@<TRIPOS>MOLECULE
38_3HLL_TargetProtein
30 32 1                 
SMALL
USER_CHARGES
@<TRIPOS>ATOM
1	  C1	31.728	37.731	24.647	C.3	1	RES1	0.000	
2	  N1	35.588	38.931	29.816	N.pl3	1	RES1	0.000	
3	  O1	36.582	40.261	28.218	O.2	1	RES1	0.000	
4	  C2	32.803	38.167	25.617	C.2	1	RES1	0.000	
5	  C3	32.468	38.275	26.996	C.2	1	RES1	0.000	
6	  C4	33.420	38.649	27.903	C.2	1	RES1	0.000	
7	  C5	34.708	39.010	27.512	C.2	1	RES1	0.000	
8	  C6	35.696	39.460	28.541	C.2	1	RES1	0.000	
9	  C7	36.484	39.284	30.862	C.3	1	RES1	0.000	
10	  O7	35.625	38.223	19.864	O.3	1	RES1	0.000	
11	  O8	34.269	40.716	23.660	O.2	1	RES1	0.000	
12	  N9	34.520	38.418	23.847	N.2	1	RES1	0.000	
13	 C33	35.051	38.899	26.168	C.2	1	RES1	0.000	
14	 C34	34.115	38.502	25.227	C.2	1	RES1	0.000	
15	 C35	34.832	37.198	23.238	C.2	1	RES1	0.000	
16	 C36	34.779	35.919	24.042	C.3	1	RES1	0.000	
17	 C37	35.211	37.191	21.960	C.2	1	RES1	0.000	
18	 C38	35.268	38.411	21.165	C.2	1	RES1	0.000	
19	 C39	36.058	36.881	19.583	C.3	1	RES1	0.000	
20	 C40	36.718	36.851	18.222	C.2	1	RES1	0.000	
21	 C41	36.000	36.573	17.062	C.2	1	RES1	0.000	
22	 C42	36.631	36.523	15.844	C.2	1	RES1	0.000	
23	 C43	38.027	36.737	15.756	C.2	1	RES1	0.000	
24	 C44	38.757	37.036	16.898	C.2	1	RES1	0.000	
25	 C45	38.119	37.037	18.110	C.2	1	RES1	0.000	
26	 C46	34.929	39.577	21.707	C.2	1	RES1	0.000	
27	 C47	34.539	39.653	23.163	C.2	1	RES1	0.000	
28	 BR1	34.938	41.182	20.708	Br	1	RES1	0.000	
29	  F1	38.617	36.700	14.570	 F	1	RES1	0.000	
30	  F2	38.830	37.311	19.228	 F	1	RES1	0.000	
@<TRIPOS>BOND
1 1 4 1
2 2 8 1
3 2 9 1
4 3 8 2
5 4 5 ar
6 4 14 ar
7 5 6 ar
8 6 7 ar
9 7 8 1
10 7 13 ar
11 13 14 ar
12 12 14 1
13 12 15 ar
14 15 16 1
15 15 17 ar
16 17 18 ar
17 10 18 1
18 18 26 ar
19 10 19 1
20 19 20 1
21 20 21 ar
22 20 25 ar
23 21 22 ar
24 22 23 ar
25 23 24 ar
26 24 25 ar
27 26 27 ar
28 11 27 2
29 12 27 ar
30 26 28 1
31 23 29 1
32 25 30 1
@<TRIPOS>SUBSTRUCTURE
1	RES1	1	GROUP	1 ****	RES
