# created with PyMOL 2.5.2
@<TRIPOS>MOLECULE
38_3HLL_TargetProtein
30 32 1                 
SMALL
USER_CHARGES
@<TRIPOS>ATOM
1	  C1	31.709	37.719	24.640	C.3	1	RES1	0.000	
2	  N1	35.683	38.936	29.762	N.pl3	1	RES1	0.000	
3	  O1	36.633	40.187	28.097	O.2	1	RES1	0.000	
4	  C2	32.787	38.164	25.643	C.2	1	RES1	0.000	
5	  C3	32.449	38.274	26.998	C.2	1	RES1	0.000	
6	  C4	33.409	38.677	27.922	C.2	1	RES1	0.000	
7	  C5	34.699	38.978	27.528	C.2	1	RES1	0.000	
8	  C6	35.769	39.423	28.485	C.2	1	RES1	0.000	
9	  C7	36.649	39.277	30.798	C.3	1	RES1	0.000	
10	  O7	35.564	38.249	19.827	O.3	1	RES1	0.000	
11	  O8	34.208	40.731	23.648	O.2	1	RES1	0.000	
12	  N9	34.467	38.429	23.848	N.2	1	RES1	0.000	
13	 C34	35.036	38.903	26.137	C.2	1	RES1	0.000	
14	 C35	34.070	38.474	25.223	C.2	1	RES1	0.000	
15	 C36	34.786	37.210	23.246	C.2	1	RES1	0.000	
16	 C37	34.774	35.923	24.035	C.3	1	RES1	0.000	
17	 C38	35.137	37.177	21.929	C.2	1	RES1	0.000	
18	 C39	35.154	38.415	21.147	C.2	1	RES1	0.000	
19	 C40	36.045	36.909	19.597	C.3	1	RES1	0.000	
20	 C41	36.742	36.877	18.241	C.2	1	RES1	0.000	
21	 C42	36.033	36.562	17.077	C.2	1	RES1	0.000	
22	 C43	36.687	36.484	15.852	C.2	1	RES1	0.000	
23	 C44	38.056	36.728	15.791	C.2	1	RES1	0.000	
24	 C45	38.784	37.027	16.961	C.2	1	RES1	0.000	
25	 C46	38.089	37.091	18.178	C.2	1	RES1	0.000	
26	 C47	34.895	39.604	21.699	C.2	1	RES1	0.000	
27	 C48	34.486	39.647	23.148	C.2	1	RES1	0.000	
28	 BR1	34.965	41.211	20.751	Br	1	RES1	0.000	
29	  F1	38.722	36.654	14.649	 F	1	RES1	0.000	
30	  F2	38.824	37.365	19.277	 F	1	RES1	0.000	
@<TRIPOS>BOND
1 1 4 1
2 2 8 1
3 2 9 1
4 3 8 2
5 4 5 ar
6 4 14 ar
7 5 6 ar
8 6 7 ar
9 7 8 1
10 7 13 ar
11 13 14 ar
12 12 14 1
13 12 15 ar
14 15 16 1
15 15 17 ar
16 17 18 ar
17 10 18 1
18 18 26 ar
19 10 19 1
20 19 20 1
21 20 21 ar
22 20 25 ar
23 21 22 ar
24 22 23 ar
25 23 24 ar
26 24 25 ar
27 26 27 ar
28 11 27 2
29 12 27 ar
30 26 28 1
31 23 29 1
32 25 30 1
@<TRIPOS>SUBSTRUCTURE
1	RES1	1	GROUP	1 ****	RES
