# created with PyMOL 2.5.2
@<TRIPOS>MOLECULE
38_3HLL_TargetProtein
30 32 1                 
SMALL
USER_CHARGES
@<TRIPOS>ATOM
1	  C1	31.750	37.656	24.627	C.3	1	RES1	0.000	
2	  N1	35.650	38.885	29.772	N.pl3	1	RES1	0.000	
3	  O1	36.517	40.310	28.187	O.2	1	RES1	0.000	
4	  C2	32.793	38.115	25.615	C.2	1	RES1	0.000	
5	  C3	32.471	38.178	26.972	C.2	1	RES1	0.000	
6	  C4	33.396	38.610	27.911	C.2	1	RES1	0.000	
7	  C5	34.653	39.009	27.531	C.2	1	RES1	0.000	
8	  C6	35.712	39.460	28.516	C.2	1	RES1	0.000	
9	  C7	36.571	39.255	30.791	C.3	1	RES1	0.000	
10	  O9	35.659	38.301	19.855	O.3	1	RES1	0.000	
11	 N10	34.484	38.444	23.840	N.2	1	RES1	0.000	
12	 O10	34.246	40.743	23.706	O.2	1	RES1	0.000	
13	 C39	35.024	38.923	26.153	C.2	1	RES1	0.000	
14	 C40	34.091	38.505	25.218	C.2	1	RES1	0.000	
15	 C41	34.834	37.247	23.223	C.2	1	RES1	0.000	
16	 C42	34.778	35.942	24.014	C.3	1	RES1	0.000	
17	 C43	35.219	37.217	21.953	C.2	1	RES1	0.000	
18	 C44	35.297	38.470	21.201	C.2	1	RES1	0.000	
19	 C45	36.056	36.966	19.587	C.3	1	RES1	0.000	
20	 C46	36.724	36.901	18.226	C.2	1	RES1	0.000	
21	 C47	35.956	36.608	17.078	C.2	1	RES1	0.000	
22	 C48	36.644	36.498	15.843	C.2	1	RES1	0.000	
23	 C49	37.999	36.671	15.785	C.2	1	RES1	0.000	
24	 C50	38.767	36.932	16.893	C.2	1	RES1	0.000	
25	 C51	38.098	37.035	18.128	C.2	1	RES1	0.000	
26	 C52	34.951	39.642	21.726	C.2	1	RES1	0.000	
27	 C53	34.538	39.666	23.179	C.2	1	RES1	0.000	
28	 BR1	34.968	41.232	20.753	Br	1	RES1	0.000	
29	  F1	38.628	36.577	14.598	 F	1	RES1	0.000	
30	  F2	38.834	37.307	19.253	 F	1	RES1	0.000	
@<TRIPOS>BOND
1 1 4 1
2 2 8 1
3 2 9 1
4 3 8 2
5 4 5 ar
6 4 14 ar
7 5 6 ar
8 6 7 ar
9 7 8 1
10 11 14 1
11 11 15 ar
12 11 27 ar
13 12 27 2
14 7 13 ar
15 13 14 ar
16 15 16 1
17 15 17 ar
18 17 18 ar
19 10 18 1
20 18 26 ar
21 10 19 1
22 19 20 1
23 20 21 ar
24 20 25 ar
25 21 22 ar
26 22 23 ar
27 23 24 ar
28 24 25 ar
29 26 27 ar
30 26 28 1
31 23 29 1
32 25 30 1
@<TRIPOS>SUBSTRUCTURE
1	RES1	1	GROUP	1 ****	RES
