# created with PyMOL 2.5.2
@<TRIPOS>MOLECULE
38_3HLL_TargetProtein
30 32 1                 
SMALL
USER_CHARGES
@<TRIPOS>ATOM
1	  C1	31.722	37.717	24.625	C.3	1	RES1	0.000	
2	  N1	35.635	38.972	29.771	N.pl3	1	RES1	0.000	
3	  O1	36.584	40.259	28.113	O.2	1	RES1	0.000	
4	  C2	32.762	38.157	25.629	C.2	1	RES1	0.000	
5	  C3	32.453	38.267	26.982	C.2	1	RES1	0.000	
6	  C4	33.388	38.687	27.924	C.2	1	RES1	0.000	
7	  C5	34.678	39.014	27.533	C.2	1	RES1	0.000	
8	  C6	35.715	39.466	28.488	C.2	1	RES1	0.000	
9	  C7	36.588	39.316	30.797	C.3	1	RES1	0.000	
10	  O7	35.624	38.155	19.866	O.3	1	RES1	0.000	
11	  O8	34.315	40.709	23.649	O.2	1	RES1	0.000	
12	 N10	34.455	38.406	23.852	N.2	1	RES1	0.000	
13	 C34	35.030	38.910	26.154	C.2	1	RES1	0.000	
14	 C35	34.083	38.495	25.260	C.2	1	RES1	0.000	
15	 C36	34.777	37.186	23.257	C.2	1	RES1	0.000	
16	 C37	34.689	35.923	24.077	C.3	1	RES1	0.000	
17	 C38	35.148	37.137	21.984	C.2	1	RES1	0.000	
18	 C39	35.224	38.329	21.167	C.2	1	RES1	0.000	
19	 C40	36.049	36.822	19.595	C.3	1	RES1	0.000	
20	 C41	36.748	36.784	18.260	C.2	1	RES1	0.000	
21	 C42	36.002	36.524	17.094	C.2	1	RES1	0.000	
22	 C43	36.645	36.549	15.860	C.2	1	RES1	0.000	
23	 C44	37.990	36.818	15.769	C.2	1	RES1	0.000	
24	 C45	38.748	37.106	16.911	C.2	1	RES1	0.000	
25	 C46	38.109	37.090	18.152	C.2	1	RES1	0.000	
26	 C47	34.997	39.543	21.687	C.2	1	RES1	0.000	
27	 C48	34.578	39.632	23.142	C.2	1	RES1	0.000	
28	 BR1	35.153	41.135	20.727	Br	1	RES1	0.000	
29	  F1	38.616	36.825	14.571	 F	1	RES1	0.000	
30	  F2	38.808	37.373	19.240	 F	1	RES1	0.000	
@<TRIPOS>BOND
1 1 4 1
2 2 8 1
3 2 9 1
4 3 8 2
5 4 5 ar
6 4 14 ar
7 5 6 ar
8 6 7 ar
9 7 8 1
10 12 14 1
11 12 15 ar
12 12 27 ar
13 7 13 ar
14 13 14 ar
15 15 16 1
16 15 17 ar
17 17 18 ar
18 10 18 1
19 18 26 ar
20 10 19 1
21 19 20 1
22 20 21 ar
23 20 25 ar
24 21 22 ar
25 22 23 ar
26 23 24 ar
27 24 25 ar
28 26 27 ar
29 11 27 2
30 26 28 1
31 23 29 1
32 25 30 1
@<TRIPOS>SUBSTRUCTURE
1	RES1	1	GROUP	1 ****	RES
