# created with PyMOL 2.5.2
@<TRIPOS>MOLECULE
BRD4_6YQN_TargetProtein
24 27 1                 
SMALL
USER_CHARGES
@<TRIPOS>ATOM
1	 CL1	25.734	17.888	-6.991	Cl	1	RES1	0.000	
2	  C1	26.026	15.083	1.294	C.3	1	RES1	0.000	
3	  N1	30.792	16.826	-0.007	N.2	1	RES1	0.000	
4	  S1	28.507	16.323	1.368	S.2	1	RES1	0.000	
5	  C2	27.231	15.499	0.530	C.2	1	RES1	0.000	
6	  N2	32.694	17.776	0.554	N.2	1	RES1	0.000	
7	  C3	27.531	15.300	-0.827	C.2	1	RES1	0.000	
8	  N3	32.916	16.964	-0.536	N.2	1	RES1	0.000	
9	  C4	26.594	14.553	-1.743	C.3	1	RES1	0.000	
10	  C5	28.790	15.882	-1.181	C.2	1	RES1	0.000	
11	  C6	29.468	16.362	-0.052	C.2	1	RES1	0.000	
12	  C7	31.448	17.706	0.862	C.2	1	RES1	0.000	
13	  C8	30.799	18.490	1.944	C.3	1	RES1	0.000	
14	  C9	31.790	16.389	-0.836	C.2	1	RES1	0.000	
15	 C10	31.554	15.318	-1.863	C.3	1	RES1	0.000	
16	 N10	30.561	15.774	-2.882	N.2	1	RES1	0.000	
17	 C11	32.820	14.959	-2.601	C.3	1	RES1	0.000	
18	 C31	29.349	16.001	-2.553	C.2	1	RES1	0.000	
19	 C32	28.425	16.477	-3.634	C.2	1	RES1	0.000	
20	 C33	27.323	17.302	-3.369	C.2	1	RES1	0.000	
21	 C34	26.496	17.769	-4.390	C.2	1	RES1	0.000	
22	 C35	26.783	17.360	-5.699	C.2	1	RES1	0.000	
23	 C36	27.870	16.562	-6.024	C.2	1	RES1	0.000	
24	 C37	28.701	16.118	-4.976	C.2	1	RES1	0.000	
@<TRIPOS>BOND
1 1 22 1
2 2 5 1
3 3 11 1
4 3 12 ar
5 3 14 ar
6 4 5 ar
7 4 11 ar
8 5 7 ar
9 6 8 ar
10 6 12 ar
11 7 9 1
12 7 10 ar
13 8 14 ar
14 10 11 ar
15 12 13 1
16 14 15 1
17 15 16 1
18 15 17 1
19 16 18 2
20 10 18 1
21 18 19 1
22 19 20 ar
23 19 24 ar
24 20 21 ar
25 21 22 ar
26 22 23 ar
27 23 24 ar
@<TRIPOS>SUBSTRUCTURE
1	RES1	1	GROUP	1 ****	RES
