# created with PyMOL 2.5.2
@<TRIPOS>MOLECULE
TRKA_4YNE_TargetProtein
27 31 1                 
SMALL
USER_CHARGES
@<TRIPOS>ATOM
1	  N5	-16.696	-39.812	-11.547	N.2	1	RES1	0.000	
2	  N6	-15.840	-43.081	-15.817	N.pl3	1	RES1	0.000	
3	  N7	-16.514	-42.665	-13.617	N.2	1	RES1	0.000	
4	  N8	-16.692	-41.762	-12.612	N.2	1	RES1	0.000	
5	  N9	-18.010	-43.408	-9.555	N.2	1	RES1	0.000	
6	 C15	-18.436	-44.617	-9.089	C.2	1	RES1	0.000	
7	 C16	-18.470	-45.779	-9.821	C.2	1	RES1	0.000	
8	 C17	-18.047	-45.711	-11.153	C.2	1	RES1	0.000	
9	 C18	-17.600	-44.472	-11.678	C.2	1	RES1	0.000	
10	 C19	-17.596	-43.345	-10.828	C.2	1	RES1	0.000	
11	 C20	-17.183	-42.030	-11.341	C.2	1	RES1	0.000	
12	 C21	-17.174	-40.774	-10.711	C.2	1	RES1	0.000	
13	 C22	-16.398	-40.413	-12.659	C.2	1	RES1	0.000	
14	 C23	-15.874	-39.926	-13.862	C.2	1	RES1	0.000	
15	 C24	-15.662	-40.751	-14.889	C.2	1	RES1	0.000	
16	 C25	-16.036	-42.219	-14.747	C.2	1	RES1	0.000	
17	 C26	-15.134	-42.716	-17.053	C.3	1	RES1	0.000	
18	 C27	-14.712	-44.093	-17.591	C.3	1	RES1	0.000	
19	 C28	-15.842	-45.017	-17.181	C.3	1	RES1	0.000	
20	 C29	-16.217	-44.499	-15.781	C.3	1	RES1	0.000	
21	 C30	-17.689	-44.777	-15.496	C.2	1	RES1	0.000	
22	 C31	-18.096	-45.844	-14.704	C.2	1	RES1	0.000	
23	 C32	-19.465	-46.068	-14.459	C.2	1	RES1	0.000	
24	 C33	-20.412	-45.259	-15.065	C.2	1	RES1	0.000	
25	 C34	-20.006	-44.200	-15.849	C.2	1	RES1	0.000	
26	 C35	-18.671	-43.971	-16.091	C.2	1	RES1	0.000	
27	  F1	-20.916	-43.430	-16.418	 F	1	RES1	0.000	
@<TRIPOS>BOND
1 3 4 ar
2 5 6 ar
3 6 7 ar
4 7 8 ar
5 8 9 ar
6 9 10 ar
7 5 10 ar
8 10 11 1
9 4 11 ar
10 11 12 ar
11 1 12 ar
12 1 13 ar
13 4 13 ar
14 13 14 ar
15 14 15 ar
16 15 16 ar
17 2 16 1
18 3 16 ar
19 2 17 1
20 17 18 1
21 18 19 1
22 19 20 1
23 2 20 1
24 20 21 1
25 21 22 ar
26 21 26 ar
27 22 23 ar
28 23 24 ar
29 24 25 ar
30 25 26 ar
31 25 27 1
@<TRIPOS>SUBSTRUCTURE
1	RES1	1	GROUP	1 ****	RES
