# created with PyMOL 2.5.2
@<TRIPOS>MOLECULE
TRKA_4YNE_TargetProtein
27 31 1                 
SMALL
USER_CHARGES
@<TRIPOS>ATOM
1	  N5	-16.676	-39.837	-11.534	N.2	1	RES1	0.000	
2	  N6	-15.809	-43.063	-15.847	N.pl3	1	RES1	0.000	
3	  N7	-16.485	-42.671	-13.644	N.2	1	RES1	0.000	
4	  N8	-16.670	-41.784	-12.639	N.2	1	RES1	0.000	
5	  N9	-18.057	-43.405	-9.662	N.2	1	RES1	0.000	
6	 C16	-18.519	-44.569	-9.182	C.2	1	RES1	0.000	
7	 C17	-18.597	-45.744	-9.961	C.2	1	RES1	0.000	
8	 C18	-18.192	-45.671	-11.277	C.2	1	RES1	0.000	
9	 C19	-17.719	-44.483	-11.815	C.2	1	RES1	0.000	
10	 C20	-17.668	-43.370	-10.955	C.2	1	RES1	0.000	
11	 C21	-17.189	-42.062	-11.396	C.2	1	RES1	0.000	
12	 C22	-17.213	-40.853	-10.759	C.2	1	RES1	0.000	
13	 C23	-16.389	-40.445	-12.660	C.2	1	RES1	0.000	
14	 C24	-15.840	-39.918	-13.832	C.2	1	RES1	0.000	
15	 C25	-15.650	-40.748	-14.891	C.2	1	RES1	0.000	
16	 C26	-15.981	-42.203	-14.755	C.2	1	RES1	0.000	
17	 C27	-15.103	-42.724	-17.077	C.3	1	RES1	0.000	
18	 C28	-14.688	-44.064	-17.637	C.3	1	RES1	0.000	
19	 C29	-15.837	-44.974	-17.228	C.3	1	RES1	0.000	
20	 C30	-16.194	-44.477	-15.812	C.3	1	RES1	0.000	
21	 C31	-17.631	-44.749	-15.503	C.2	1	RES1	0.000	
22	 C32	-17.979	-45.854	-14.679	C.2	1	RES1	0.000	
23	 C33	-19.301	-46.121	-14.328	C.2	1	RES1	0.000	
24	 C34	-20.332	-45.285	-14.816	C.2	1	RES1	0.000	
25	 C35	-20.006	-44.206	-15.644	C.2	1	RES1	0.000	
26	 C36	-18.682	-43.931	-15.980	C.2	1	RES1	0.000	
27	  F1	-20.980	-43.428	-16.101	 F	1	RES1	0.000	
@<TRIPOS>BOND
1 3 4 ar
2 5 6 ar
3 6 7 ar
4 7 8 ar
5 8 9 ar
6 9 10 ar
7 5 10 ar
8 10 11 1
9 4 11 ar
10 11 12 ar
11 1 12 ar
12 1 13 ar
13 4 13 ar
14 13 14 ar
15 14 15 ar
16 15 16 ar
17 2 16 1
18 3 16 ar
19 2 17 1
20 17 18 1
21 18 19 1
22 19 20 1
23 2 20 1
24 20 21 1
25 21 22 ar
26 21 26 ar
27 22 23 ar
28 23 24 ar
29 24 25 ar
30 25 26 ar
31 25 27 1
@<TRIPOS>SUBSTRUCTURE
1	RES1	1	GROUP	1 ****	RES
