# created with PyMOL 2.5.2
@<TRIPOS>MOLECULE
TRKA_4YNE_TargetProtein
27 31 1                 
SMALL
USER_CHARGES
@<TRIPOS>ATOM
1	  N5	-16.547	-39.829	-11.452	N.2	1	RES1	0.000	
2	  N6	-15.858	-43.037	-15.803	N.pl3	1	RES1	0.000	
3	  N7	-16.538	-42.653	-13.604	N.2	1	RES1	0.000	
4	  N8	-16.656	-41.756	-12.589	N.2	1	RES1	0.000	
5	  N9	-18.050	-43.336	-9.586	N.2	1	RES1	0.000	
6	 C17	-18.507	-44.539	-9.122	C.2	1	RES1	0.000	
7	 C18	-18.548	-45.698	-9.877	C.2	1	RES1	0.000	
8	 C19	-18.083	-45.647	-11.199	C.2	1	RES1	0.000	
9	 C20	-17.633	-44.430	-11.686	C.2	1	RES1	0.000	
10	 C21	-17.612	-43.340	-10.864	C.2	1	RES1	0.000	
11	 C22	-17.167	-42.021	-11.343	C.2	1	RES1	0.000	
12	 C23	-17.038	-40.831	-10.659	C.2	1	RES1	0.000	
13	 C24	-16.325	-40.421	-12.630	C.2	1	RES1	0.000	
14	 C25	-15.832	-39.916	-13.821	C.2	1	RES1	0.000	
15	 C26	-15.672	-40.725	-14.886	C.2	1	RES1	0.000	
16	 C27	-16.035	-42.196	-14.721	C.2	1	RES1	0.000	
17	 C28	-15.152	-42.718	-17.045	C.3	1	RES1	0.000	
18	 C29	-14.690	-44.045	-17.568	C.3	1	RES1	0.000	
19	 C30	-15.832	-44.970	-17.186	C.3	1	RES1	0.000	
20	 C31	-16.233	-44.463	-15.801	C.3	1	RES1	0.000	
21	 C32	-17.692	-44.775	-15.537	C.2	1	RES1	0.000	
22	 C33	-18.067	-45.894	-14.757	C.2	1	RES1	0.000	
23	 C34	-19.384	-46.207	-14.535	C.2	1	RES1	0.000	
24	 C35	-20.422	-45.400	-15.077	C.2	1	RES1	0.000	
25	 C36	-20.057	-44.292	-15.841	C.2	1	RES1	0.000	
26	 C37	-18.730	-43.967	-16.090	C.2	1	RES1	0.000	
27	  F1	-21.028	-43.533	-16.338	 F	1	RES1	0.000	
@<TRIPOS>BOND
1 3 4 ar
2 5 6 ar
3 6 7 ar
4 7 8 ar
5 8 9 ar
6 9 10 ar
7 5 10 ar
8 10 11 1
9 4 11 ar
10 11 12 ar
11 1 12 ar
12 1 13 ar
13 4 13 ar
14 13 14 ar
15 14 15 ar
16 15 16 ar
17 2 16 1
18 3 16 ar
19 2 17 1
20 17 18 1
21 18 19 1
22 19 20 1
23 2 20 1
24 20 21 1
25 21 22 ar
26 21 26 ar
27 22 23 ar
28 23 24 ar
29 24 25 ar
30 25 26 ar
31 25 27 1
@<TRIPOS>SUBSTRUCTURE
1	RES1	1	GROUP	1 ****	RES
