# created with PyMOL 2.5.2
@<TRIPOS>MOLECULE
TRKA_4YNE_TargetProtein
27 31 1                 
SMALL
USER_CHARGES
@<TRIPOS>ATOM
1	  N5	-16.741	-39.840	-11.547	N.2	1	RES1	0.000	
2	  N6	-15.802	-43.064	-15.845	N.pl3	1	RES1	0.000	
3	  N7	-16.482	-42.685	-13.639	N.2	1	RES1	0.000	
4	  N8	-16.673	-41.791	-12.642	N.2	1	RES1	0.000	
5	  N9	-18.045	-43.421	-9.667	N.2	1	RES1	0.000	
6	 C18	-18.506	-44.605	-9.202	C.2	1	RES1	0.000	
7	 C19	-18.595	-45.743	-10.001	C.2	1	RES1	0.000	
8	 C20	-18.189	-45.686	-11.331	C.2	1	RES1	0.000	
9	 C21	-17.725	-44.481	-11.844	C.2	1	RES1	0.000	
10	 C22	-17.693	-43.379	-10.971	C.2	1	RES1	0.000	
11	 C23	-17.202	-42.052	-11.401	C.2	1	RES1	0.000	
12	 C24	-17.245	-40.838	-10.770	C.2	1	RES1	0.000	
13	 C25	-16.401	-40.450	-12.670	C.2	1	RES1	0.000	
14	 C26	-15.866	-39.919	-13.870	C.2	1	RES1	0.000	
15	 C27	-15.682	-40.741	-14.922	C.2	1	RES1	0.000	
16	 C28	-16.012	-42.210	-14.761	C.2	1	RES1	0.000	
17	 C29	-15.120	-42.753	-17.085	C.3	1	RES1	0.000	
18	 C30	-14.712	-44.090	-17.667	C.3	1	RES1	0.000	
19	 C31	-15.823	-44.999	-17.216	C.3	1	RES1	0.000	
20	 C32	-16.178	-44.502	-15.815	C.3	1	RES1	0.000	
21	 C33	-17.595	-44.774	-15.456	C.2	1	RES1	0.000	
22	 C34	-17.974	-45.854	-14.641	C.2	1	RES1	0.000	
23	 C35	-19.333	-46.090	-14.332	C.2	1	RES1	0.000	
24	 C36	-20.303	-45.246	-14.797	C.2	1	RES1	0.000	
25	 C37	-19.962	-44.174	-15.587	C.2	1	RES1	0.000	
26	 C38	-18.614	-43.919	-15.912	C.2	1	RES1	0.000	
27	  F1	-20.915	-43.332	-16.025	 F	1	RES1	0.000	
@<TRIPOS>BOND
1 3 4 ar
2 5 6 ar
3 6 7 ar
4 7 8 ar
5 8 9 ar
6 9 10 ar
7 5 10 ar
8 10 11 1
9 4 11 ar
10 11 12 ar
11 1 12 ar
12 1 13 ar
13 4 13 ar
14 13 14 ar
15 14 15 ar
16 15 16 ar
17 2 16 1
18 3 16 ar
19 2 17 1
20 17 18 1
21 18 19 1
22 19 20 1
23 2 20 1
24 20 21 1
25 21 22 ar
26 21 26 ar
27 22 23 ar
28 23 24 ar
29 24 25 ar
30 25 26 ar
31 25 27 1
@<TRIPOS>SUBSTRUCTURE
1	RES1	1	GROUP	1 ****	RES
