# created with PyMOL 2.5.2
@<TRIPOS>MOLECULE
TRKA_4YNE_TargetProtein
27 31 1                 
SMALL
USER_CHARGES
@<TRIPOS>ATOM
1	  N5	-16.703	-39.843	-11.533	N.2	1	RES1	0.000	
2	  N6	-15.813	-43.073	-15.833	N.pl3	1	RES1	0.000	
3	  N7	-16.481	-42.665	-13.633	N.2	1	RES1	0.000	
4	  N8	-16.690	-41.780	-12.629	N.2	1	RES1	0.000	
5	  N9	-18.049	-43.420	-9.677	N.2	1	RES1	0.000	
6	 C19	-18.499	-44.592	-9.211	C.2	1	RES1	0.000	
7	 C20	-18.618	-45.740	-10.002	C.2	1	RES1	0.000	
8	 C21	-18.208	-45.675	-11.350	C.2	1	RES1	0.000	
9	 C22	-17.737	-44.490	-11.845	C.2	1	RES1	0.000	
10	 C23	-17.692	-43.359	-10.986	C.2	1	RES1	0.000	
11	 C24	-17.198	-42.049	-11.414	C.2	1	RES1	0.000	
12	 C25	-17.250	-40.850	-10.760	C.2	1	RES1	0.000	
13	 C26	-16.385	-40.440	-12.684	C.2	1	RES1	0.000	
14	 C27	-15.860	-39.921	-13.848	C.2	1	RES1	0.000	
15	 C28	-15.661	-40.734	-14.917	C.2	1	RES1	0.000	
16	 C29	-15.990	-42.210	-14.773	C.2	1	RES1	0.000	
17	 C30	-15.094	-42.748	-17.084	C.3	1	RES1	0.000	
18	 C31	-14.694	-44.087	-17.661	C.3	1	RES1	0.000	
19	 C32	-15.856	-44.968	-17.236	C.3	1	RES1	0.000	
20	 C33	-16.185	-44.492	-15.821	C.3	1	RES1	0.000	
21	 C34	-17.641	-44.766	-15.456	C.2	1	RES1	0.000	
22	 C35	-17.974	-45.858	-14.656	C.2	1	RES1	0.000	
23	 C36	-19.295	-46.145	-14.319	C.2	1	RES1	0.000	
24	 C37	-20.297	-45.271	-14.795	C.2	1	RES1	0.000	
25	 C38	-19.960	-44.183	-15.575	C.2	1	RES1	0.000	
26	 C39	-18.642	-43.927	-15.889	C.2	1	RES1	0.000	
27	  F1	-20.919	-43.352	-16.027	 F	1	RES1	0.000	
@<TRIPOS>BOND
1 3 4 ar
2 5 6 ar
3 6 7 ar
4 7 8 ar
5 8 9 ar
6 9 10 ar
7 5 10 ar
8 10 11 1
9 4 11 ar
10 11 12 ar
11 1 12 ar
12 1 13 ar
13 4 13 ar
14 13 14 ar
15 14 15 ar
16 15 16 ar
17 2 16 1
18 3 16 ar
19 2 17 1
20 17 18 1
21 18 19 1
22 19 20 1
23 2 20 1
24 20 21 1
25 21 22 ar
26 21 26 ar
27 22 23 ar
28 23 24 ar
29 24 25 ar
30 25 26 ar
31 25 27 1
@<TRIPOS>SUBSTRUCTURE
1	RES1	1	GROUP	1 ****	RES
