# created with PyMOL 2.5.2
@<TRIPOS>MOLECULE
TRKA_4YNE_TargetProtein
27 31 1                 
SMALL
USER_CHARGES
@<TRIPOS>ATOM
1	  N5	-16.711	-39.846	-11.536	N.2	1	RES1	0.000	
2	  N6	-15.809	-43.074	-15.833	N.pl3	1	RES1	0.000	
3	  N7	-16.477	-42.682	-13.649	N.2	1	RES1	0.000	
4	  N8	-16.682	-41.770	-12.639	N.2	1	RES1	0.000	
5	  N9	-18.044	-43.404	-9.649	N.2	1	RES1	0.000	
6	 C20	-18.464	-44.615	-9.171	C.2	1	RES1	0.000	
7	 C21	-18.555	-45.749	-9.918	C.2	1	RES1	0.000	
8	 C22	-18.175	-45.672	-11.269	C.2	1	RES1	0.000	
9	 C23	-17.715	-44.479	-11.810	C.2	1	RES1	0.000	
10	 C24	-17.653	-43.352	-10.945	C.2	1	RES1	0.000	
11	 C25	-17.181	-42.054	-11.388	C.2	1	RES1	0.000	
12	 C26	-17.240	-40.844	-10.746	C.2	1	RES1	0.000	
13	 C27	-16.407	-40.419	-12.682	C.2	1	RES1	0.000	
14	 C28	-15.867	-39.924	-13.846	C.2	1	RES1	0.000	
15	 C29	-15.675	-40.755	-14.894	C.2	1	RES1	0.000	
16	 C30	-16.000	-42.216	-14.748	C.2	1	RES1	0.000	
17	 C31	-15.083	-42.737	-17.070	C.3	1	RES1	0.000	
18	 C32	-14.682	-44.081	-17.633	C.3	1	RES1	0.000	
19	 C33	-15.841	-45.006	-17.206	C.3	1	RES1	0.000	
20	 C34	-16.171	-44.499	-15.817	C.3	1	RES1	0.000	
21	 C35	-17.640	-44.754	-15.488	C.2	1	RES1	0.000	
22	 C36	-18.004	-45.837	-14.684	C.2	1	RES1	0.000	
23	 C37	-19.347	-46.096	-14.371	C.2	1	RES1	0.000	
24	 C38	-20.339	-45.250	-14.862	C.2	1	RES1	0.000	
25	 C39	-19.993	-44.190	-15.650	C.2	1	RES1	0.000	
26	 C40	-18.667	-43.934	-15.979	C.2	1	RES1	0.000	
27	  F1	-20.965	-43.399	-16.134	 F	1	RES1	0.000	
@<TRIPOS>BOND
1 3 4 ar
2 5 6 ar
3 6 7 ar
4 7 8 ar
5 8 9 ar
6 9 10 ar
7 5 10 ar
8 10 11 1
9 4 11 ar
10 11 12 ar
11 1 12 ar
12 1 13 ar
13 4 13 ar
14 13 14 ar
15 14 15 ar
16 15 16 ar
17 2 16 1
18 3 16 ar
19 2 17 1
20 17 18 1
21 18 19 1
22 19 20 1
23 2 20 1
24 20 21 1
25 21 22 ar
26 21 26 ar
27 22 23 ar
28 23 24 ar
29 24 25 ar
30 25 26 ar
31 25 27 1
@<TRIPOS>SUBSTRUCTURE
1	RES1	1	GROUP	1 ****	RES
