# created with PyMOL 2.5.2
@<TRIPOS>MOLECULE
TRKA_4YNE_TargetProtein
27 31 1                 
SMALL
USER_CHARGES
@<TRIPOS>ATOM
1	  N5	-16.557	-39.869	-11.451	N.2	1	RES1	0.000	
2	  N6	-15.867	-43.053	-15.796	N.pl3	1	RES1	0.000	
3	  N7	-16.531	-42.650	-13.608	N.2	1	RES1	0.000	
4	  N8	-16.673	-41.761	-12.600	N.2	1	RES1	0.000	
5	  N9	-17.984	-43.344	-9.568	N.2	1	RES1	0.000	
6	 C21	-18.452	-44.524	-9.073	C.2	1	RES1	0.000	
7	 C22	-18.533	-45.696	-9.845	C.2	1	RES1	0.000	
8	 C23	-18.137	-45.649	-11.175	C.2	1	RES1	0.000	
9	 C24	-17.660	-44.439	-11.701	C.2	1	RES1	0.000	
10	 C25	-17.604	-43.314	-10.862	C.2	1	RES1	0.000	
11	 C26	-17.160	-42.018	-11.326	C.2	1	RES1	0.000	
12	 C27	-17.047	-40.852	-10.653	C.2	1	RES1	0.000	
13	 C28	-16.341	-40.423	-12.613	C.2	1	RES1	0.000	
14	 C29	-15.850	-39.914	-13.841	C.2	1	RES1	0.000	
15	 C30	-15.700	-40.720	-14.866	C.2	1	RES1	0.000	
16	 C31	-16.042	-42.187	-14.741	C.2	1	RES1	0.000	
17	 C32	-15.142	-42.713	-17.041	C.3	1	RES1	0.000	
18	 C33	-14.690	-44.054	-17.562	C.3	1	RES1	0.000	
19	 C34	-15.810	-44.975	-17.173	C.3	1	RES1	0.000	
20	 C35	-16.229	-44.486	-15.794	C.3	1	RES1	0.000	
21	 C36	-17.687	-44.760	-15.557	C.2	1	RES1	0.000	
22	 C37	-18.068	-45.877	-14.767	C.2	1	RES1	0.000	
23	 C38	-19.395	-46.175	-14.531	C.2	1	RES1	0.000	
24	 C39	-20.399	-45.388	-15.083	C.2	1	RES1	0.000	
25	 C40	-20.056	-44.287	-15.870	C.2	1	RES1	0.000	
26	 C41	-18.733	-43.986	-16.108	C.2	1	RES1	0.000	
27	  F1	-21.041	-43.525	-16.408	 F	1	RES1	0.000	
@<TRIPOS>BOND
1 3 4 ar
2 5 6 ar
3 6 7 ar
4 7 8 ar
5 8 9 ar
6 9 10 ar
7 5 10 ar
8 10 11 1
9 4 11 ar
10 11 12 ar
11 1 12 ar
12 1 13 ar
13 4 13 ar
14 13 14 ar
15 14 15 ar
16 15 16 ar
17 2 16 1
18 3 16 ar
19 2 17 1
20 17 18 1
21 18 19 1
22 19 20 1
23 2 20 1
24 20 21 1
25 21 22 ar
26 21 26 ar
27 22 23 ar
28 23 24 ar
29 24 25 ar
30 25 26 ar
31 25 27 1
@<TRIPOS>SUBSTRUCTURE
1	RES1	1	GROUP	1 ****	RES
