# created with PyMOL 2.5.2
@<TRIPOS>MOLECULE
TRKA_4YNE_TargetProtein
27 31 1                 
SMALL
USER_CHARGES
@<TRIPOS>ATOM
1	  N5	-16.734	-39.837	-11.541	N.2	1	RES1	0.000	
2	  N6	-15.810	-43.077	-15.835	N.pl3	1	RES1	0.000	
3	  N7	-16.476	-42.675	-13.638	N.2	1	RES1	0.000	
4	  N8	-16.663	-41.788	-12.614	N.2	1	RES1	0.000	
5	  N9	-18.061	-43.395	-9.677	N.2	1	RES1	0.000	
6	 C18	-18.503	-44.588	-9.186	C.2	1	RES1	0.000	
7	 C19	-18.565	-45.751	-9.935	C.2	1	RES1	0.000	
8	 C20	-18.134	-45.691	-11.242	C.2	1	RES1	0.000	
9	 C21	-17.669	-44.497	-11.779	C.2	1	RES1	0.000	
10	 C22	-17.639	-43.358	-10.962	C.2	1	RES1	0.000	
11	 C23	-17.192	-42.073	-11.401	C.2	1	RES1	0.000	
12	 C24	-17.236	-40.843	-10.733	C.2	1	RES1	0.000	
13	 C25	-16.404	-40.427	-12.675	C.2	1	RES1	0.000	
14	 C26	-15.881	-39.936	-13.850	C.2	1	RES1	0.000	
15	 C27	-15.674	-40.750	-14.903	C.2	1	RES1	0.000	
16	 C28	-15.999	-42.200	-14.764	C.2	1	RES1	0.000	
17	 C29	-15.101	-42.733	-17.066	C.3	1	RES1	0.000	
18	 C30	-14.712	-44.087	-17.631	C.3	1	RES1	0.000	
19	 C31	-15.855	-44.992	-17.240	C.3	1	RES1	0.000	
20	 C32	-16.174	-44.497	-15.819	C.3	1	RES1	0.000	
21	 C33	-17.639	-44.764	-15.471	C.2	1	RES1	0.000	
22	 C34	-18.012	-45.853	-14.665	C.2	1	RES1	0.000	
23	 C35	-19.364	-46.082	-14.346	C.2	1	RES1	0.000	
24	 C36	-20.341	-45.257	-14.870	C.2	1	RES1	0.000	
25	 C37	-19.985	-44.186	-15.666	C.2	1	RES1	0.000	
26	 C38	-18.645	-43.938	-15.959	C.2	1	RES1	0.000	
27	  F1	-20.923	-43.367	-16.146	 F	1	RES1	0.000	
@<TRIPOS>BOND
1 3 4 ar
2 5 6 ar
3 6 7 ar
4 7 8 ar
5 8 9 ar
6 9 10 ar
7 5 10 ar
8 10 11 1
9 4 11 ar
10 11 12 ar
11 1 12 ar
12 1 13 ar
13 4 13 ar
14 13 14 ar
15 14 15 ar
16 15 16 ar
17 2 16 1
18 3 16 ar
19 2 17 1
20 17 18 1
21 18 19 1
22 19 20 1
23 2 20 1
24 20 21 1
25 21 22 ar
26 21 26 ar
27 22 23 ar
28 23 24 ar
29 24 25 ar
30 25 26 ar
31 25 27 1
@<TRIPOS>SUBSTRUCTURE
1	RES1	1	GROUP	1 ****	RES
