# created with PyMOL 2.5.2
@<TRIPOS>MOLECULE
TRKA_4YNE_TargetProtein
27 31 1                 
SMALL
USER_CHARGES
@<TRIPOS>ATOM
1	  N5	-16.704	-39.821	-11.530	N.2	1	RES1	0.000	
2	  N6	-15.849	-43.069	-15.834	N.pl3	1	RES1	0.000	
3	  N7	-16.522	-42.689	-13.641	N.2	1	RES1	0.000	
4	  N8	-16.694	-41.784	-12.615	N.2	1	RES1	0.000	
5	  N9	-18.045	-43.388	-9.554	N.2	1	RES1	0.000	
6	 C20	-18.426	-44.567	-9.038	C.2	1	RES1	0.000	
7	 C21	-18.486	-45.751	-9.769	C.2	1	RES1	0.000	
8	 C22	-18.072	-45.718	-11.087	C.2	1	RES1	0.000	
9	 C23	-17.615	-44.508	-11.644	C.2	1	RES1	0.000	
10	 C24	-17.610	-43.354	-10.839	C.2	1	RES1	0.000	
11	 C25	-17.195	-42.043	-11.360	C.2	1	RES1	0.000	
12	 C26	-17.171	-40.807	-10.738	C.2	1	RES1	0.000	
13	 C27	-16.379	-40.441	-12.660	C.2	1	RES1	0.000	
14	 C28	-15.857	-39.925	-13.854	C.2	1	RES1	0.000	
15	 C29	-15.647	-40.744	-14.885	C.2	1	RES1	0.000	
16	 C30	-16.007	-42.213	-14.750	C.2	1	RES1	0.000	
17	 C31	-15.103	-42.744	-17.057	C.3	1	RES1	0.000	
18	 C32	-14.678	-44.065	-17.583	C.3	1	RES1	0.000	
19	 C33	-15.802	-44.987	-17.208	C.3	1	RES1	0.000	
20	 C34	-16.214	-44.485	-15.815	C.3	1	RES1	0.000	
21	 C35	-17.685	-44.738	-15.556	C.2	1	RES1	0.000	
22	 C36	-18.067	-45.825	-14.758	C.2	1	RES1	0.000	
23	 C37	-19.420	-46.098	-14.477	C.2	1	RES1	0.000	
24	 C38	-20.413	-45.284	-15.019	C.2	1	RES1	0.000	
25	 C39	-20.035	-44.231	-15.855	C.2	1	RES1	0.000	
26	 C40	-18.717	-43.946	-16.116	C.2	1	RES1	0.000	
27	  F1	-20.976	-43.411	-16.374	 F	1	RES1	0.000	
@<TRIPOS>BOND
1 3 4 ar
2 5 6 ar
3 6 7 ar
4 7 8 ar
5 8 9 ar
6 9 10 ar
7 5 10 ar
8 10 11 1
9 4 11 ar
10 11 12 ar
11 1 12 ar
12 1 13 ar
13 4 13 ar
14 13 14 ar
15 14 15 ar
16 15 16 ar
17 2 16 1
18 3 16 ar
19 2 17 1
20 17 18 1
21 18 19 1
22 19 20 1
23 2 20 1
24 20 21 1
25 21 22 ar
26 21 26 ar
27 22 23 ar
28 23 24 ar
29 24 25 ar
30 25 26 ar
31 25 27 1
@<TRIPOS>SUBSTRUCTURE
1	RES1	1	GROUP	1 ****	RES
