# created with PyMOL 2.5.2
@<TRIPOS>MOLECULE
TRKA_4YNE_TargetProtein
27 31 1                 
SMALL
USER_CHARGES
@<TRIPOS>ATOM
1	  N5	-16.550	-39.843	-11.441	N.2	1	RES1	0.000	
2	  N6	-15.871	-43.039	-15.811	N.pl3	1	RES1	0.000	
3	  N7	-16.542	-42.653	-13.626	N.2	1	RES1	0.000	
4	  N8	-16.652	-41.749	-12.579	N.2	1	RES1	0.000	
5	  N9	-18.033	-43.361	-9.580	N.2	1	RES1	0.000	
6	 C22	-18.484	-44.533	-9.121	C.2	1	RES1	0.000	
7	 C23	-18.559	-45.696	-9.858	C.2	1	RES1	0.000	
8	 C24	-18.126	-45.639	-11.197	C.2	1	RES1	0.000	
9	 C25	-17.637	-44.444	-11.717	C.2	1	RES1	0.000	
10	 C26	-17.586	-43.323	-10.874	C.2	1	RES1	0.000	
11	 C27	-17.140	-42.021	-11.342	C.2	1	RES1	0.000	
12	 C28	-17.028	-40.822	-10.637	C.2	1	RES1	0.000	
13	 C29	-16.314	-40.431	-12.597	C.2	1	RES1	0.000	
14	 C30	-15.827	-39.902	-13.816	C.2	1	RES1	0.000	
15	 C31	-15.698	-40.737	-14.877	C.2	1	RES1	0.000	
16	 C32	-16.046	-42.188	-14.717	C.2	1	RES1	0.000	
17	 C33	-15.168	-42.706	-17.026	C.3	1	RES1	0.000	
18	 C34	-14.678	-44.068	-17.584	C.3	1	RES1	0.000	
19	 C35	-15.829	-44.945	-17.190	C.3	1	RES1	0.000	
20	 C36	-16.240	-44.471	-15.800	C.3	1	RES1	0.000	
21	 C37	-17.713	-44.753	-15.527	C.2	1	RES1	0.000	
22	 C38	-18.052	-45.869	-14.739	C.2	1	RES1	0.000	
23	 C39	-19.398	-46.161	-14.494	C.2	1	RES1	0.000	
24	 C40	-20.391	-45.395	-15.065	C.2	1	RES1	0.000	
25	 C41	-20.059	-44.312	-15.864	C.2	1	RES1	0.000	
26	 C42	-18.740	-44.020	-16.113	C.2	1	RES1	0.000	
27	  F1	-21.028	-43.558	-16.423	 F	1	RES1	0.000	
@<TRIPOS>BOND
1 3 4 ar
2 5 6 ar
3 6 7 ar
4 7 8 ar
5 8 9 ar
6 9 10 ar
7 5 10 ar
8 10 11 1
9 4 11 ar
10 11 12 ar
11 1 12 ar
12 1 13 ar
13 4 13 ar
14 13 14 ar
15 14 15 ar
16 15 16 ar
17 2 16 1
18 3 16 ar
19 2 17 1
20 17 18 1
21 18 19 1
22 19 20 1
23 2 20 1
24 20 21 1
25 21 22 ar
26 21 26 ar
27 22 23 ar
28 23 24 ar
29 24 25 ar
30 25 26 ar
31 25 27 1
@<TRIPOS>SUBSTRUCTURE
1	RES1	1	GROUP	1 ****	RES
