# created with PyMOL 2.5.2
@<TRIPOS>MOLECULE
BRD4_6YQN_TargetProtein
24 27 1                 
SMALL
USER_CHARGES
@<TRIPOS>ATOM
1	 CL1	25.726	17.913	-7.002	Cl	1	RES1	0.000	
2	  C1	26.018	15.098	1.280	C.3	1	RES1	0.000	
3	  N1	30.791	16.822	0.009	N.2	1	RES1	0.000	
4	  S1	28.498	16.309	1.363	S.2	1	RES1	0.000	
5	  C2	27.231	15.501	0.537	C.2	1	RES1	0.000	
6	  N2	32.713	17.790	0.553	N.2	1	RES1	0.000	
7	  C3	27.542	15.300	-0.822	C.2	1	RES1	0.000	
8	  N3	32.924	16.962	-0.508	N.2	1	RES1	0.000	
9	  C4	26.623	14.567	-1.736	C.3	1	RES1	0.000	
10	  C5	28.791	15.882	-1.183	C.2	1	RES1	0.000	
11	  C6	29.472	16.377	-0.078	C.2	1	RES1	0.000	
12	  C7	31.439	17.705	0.865	C.2	1	RES1	0.000	
13	  C8	30.820	18.499	1.952	C.3	1	RES1	0.000	
14	  C9	31.789	16.387	-0.844	C.2	1	RES1	0.000	
15	 C10	31.535	15.329	-1.834	C.3	1	RES1	0.000	
16	 N10	30.567	15.779	-2.862	N.2	1	RES1	0.000	
17	 C11	32.834	14.919	-2.611	C.3	1	RES1	0.000	
18	 C33	29.343	16.016	-2.562	C.2	1	RES1	0.000	
19	 C34	28.421	16.450	-3.666	C.2	1	RES1	0.000	
20	 C35	27.318	17.281	-3.356	C.2	1	RES1	0.000	
21	 C36	26.463	17.709	-4.375	C.2	1	RES1	0.000	
22	 C37	26.766	17.360	-5.712	C.2	1	RES1	0.000	
23	 C38	27.882	16.580	-6.027	C.2	1	RES1	0.000	
24	 C39	28.697	16.147	-4.990	C.2	1	RES1	0.000	
@<TRIPOS>BOND
1 1 22 1
2 2 5 1
3 3 11 1
4 3 12 ar
5 3 14 ar
6 4 5 ar
7 4 11 ar
8 5 7 ar
9 6 8 ar
10 6 12 ar
11 7 9 1
12 7 10 ar
13 8 14 ar
14 10 11 ar
15 12 13 1
16 14 15 1
17 15 16 1
18 15 17 1
19 16 18 2
20 10 18 1
21 18 19 1
22 19 20 ar
23 19 24 ar
24 20 21 ar
25 21 22 ar
26 22 23 ar
27 23 24 ar
@<TRIPOS>SUBSTRUCTURE
1	RES1	1	GROUP	1 ****	RES
