# created with PyMOL 2.5.2
@<TRIPOS>MOLECULE
TRKA_4YNE_TargetProtein
27 31 1                 
SMALL
USER_CHARGES
@<TRIPOS>ATOM
1	  N5	-16.683	-39.837	-11.528	N.2	1	RES1	0.000	
2	  N6	-15.833	-43.083	-15.830	N.pl3	1	RES1	0.000	
3	  N7	-16.507	-42.658	-13.642	N.2	1	RES1	0.000	
4	  N8	-16.667	-41.785	-12.608	N.2	1	RES1	0.000	
5	  N9	-18.062	-43.358	-9.582	N.2	1	RES1	0.000	
6	 C24	-18.470	-44.568	-9.060	C.2	1	RES1	0.000	
7	 C25	-18.480	-45.728	-9.776	C.2	1	RES1	0.000	
8	 C26	-18.062	-45.737	-11.109	C.2	1	RES1	0.000	
9	 C27	-17.603	-44.513	-11.669	C.2	1	RES1	0.000	
10	 C28	-17.606	-43.348	-10.842	C.2	1	RES1	0.000	
11	 C29	-17.184	-42.046	-11.362	C.2	1	RES1	0.000	
12	 C30	-17.180	-40.817	-10.728	C.2	1	RES1	0.000	
13	 C31	-16.405	-40.427	-12.658	C.2	1	RES1	0.000	
14	 C32	-15.845	-39.918	-13.848	C.2	1	RES1	0.000	
15	 C33	-15.647	-40.767	-14.888	C.2	1	RES1	0.000	
16	 C34	-16.016	-42.197	-14.738	C.2	1	RES1	0.000	
17	 C35	-15.100	-42.732	-17.039	C.3	1	RES1	0.000	
18	 C36	-14.690	-44.089	-17.609	C.3	1	RES1	0.000	
19	 C37	-15.834	-44.981	-17.230	C.3	1	RES1	0.000	
20	 C38	-16.200	-44.449	-15.815	C.3	1	RES1	0.000	
21	 C39	-17.690	-44.736	-15.541	C.2	1	RES1	0.000	
22	 C40	-18.071	-45.856	-14.734	C.2	1	RES1	0.000	
23	 C41	-19.428	-46.128	-14.487	C.2	1	RES1	0.000	
24	 C42	-20.421	-45.308	-15.045	C.2	1	RES1	0.000	
25	 C43	-20.028	-44.216	-15.819	C.2	1	RES1	0.000	
26	 C44	-18.701	-43.925	-16.065	C.2	1	RES1	0.000	
27	  F1	-20.977	-43.432	-16.363	 F	1	RES1	0.000	
@<TRIPOS>BOND
1 3 4 ar
2 5 6 ar
3 6 7 ar
4 7 8 ar
5 8 9 ar
6 9 10 ar
7 5 10 ar
8 10 11 1
9 4 11 ar
10 11 12 ar
11 1 12 ar
12 1 13 ar
13 4 13 ar
14 13 14 ar
15 14 15 ar
16 15 16 ar
17 2 16 1
18 3 16 ar
19 2 17 1
20 17 18 1
21 18 19 1
22 19 20 1
23 2 20 1
24 20 21 1
25 21 22 ar
26 21 26 ar
27 22 23 ar
28 23 24 ar
29 24 25 ar
30 25 26 ar
31 25 27 1
@<TRIPOS>SUBSTRUCTURE
1	RES1	1	GROUP	1 ****	RES
