# created with PyMOL 2.5.2
@<TRIPOS>MOLECULE
SIRT2_4R8M_TargetProtein
15 14 1                 
SMALL
USER_CHARGES
@<TRIPOS>ATOM
1	  C1	35.931	-2.323	100.447	C.3	1	RES1	0.000	
2	  S1	45.335	-0.854	108.937	S.3	1	RES1	0.000	
3	  C2	35.950	-3.743	101.051	C.3	1	RES1	0.000	
4	  C3	36.243	-3.705	102.563	C.3	1	RES1	0.000	
5	  C4	36.276	-5.109	103.149	C.3	1	RES1	0.000	
6	  C5	36.407	-5.067	104.685	C.3	1	RES1	0.000	
7	  C6	37.652	-5.841	105.171	C.3	1	RES1	0.000	
8	  C7	37.880	-5.655	106.650	C.3	1	RES1	0.000	
9	  C8	38.872	-4.536	106.944	C.3	1	RES1	0.000	
10	  C9	40.302	-4.959	106.703	C.3	1	RES1	0.000	
11	 C10	41.293	-4.058	107.443	C.3	1	RES1	0.000	
12	 C11	42.746	-4.506	107.254	C.3	1	RES1	0.000	
13	 C12	43.721	-3.713	108.086	C.3	1	RES1	0.000	
14	 C13	44.736	-2.993	107.234	C.3	1	RES1	0.000	
15	 C14	45.728	-2.265	108.124	C.3	1	RES1	0.000	
@<TRIPOS>BOND
1 1 3 1
2 2 15 1
3 3 4 1
4 4 5 1
5 5 6 1
6 6 7 1
7 7 8 1
8 8 9 1
9 9 10 1
10 10 11 1
11 11 12 1
12 12 13 1
13 13 14 1
14 14 15 1
@<TRIPOS>SUBSTRUCTURE
1	RES1	1	GROUP	1 ****	RES
