# created with PyMOL 2.5.2
@<TRIPOS>MOLECULE
SIRT2_4R8M_TargetProtein
15 14 1                 
SMALL
USER_CHARGES
@<TRIPOS>ATOM
1	  C1	35.937	-2.356	100.450	C.3	1	RES1	0.000	
2	  S1	45.328	-0.839	108.930	S.3	1	RES1	0.000	
3	  C2	35.956	-3.744	101.050	C.3	1	RES1	0.000	
4	  C3	36.257	-3.704	102.580	C.3	1	RES1	0.000	
5	  C4	36.279	-5.108	103.154	C.3	1	RES1	0.000	
6	  C5	36.413	-5.066	104.678	C.3	1	RES1	0.000	
7	  C6	37.643	-5.838	105.183	C.3	1	RES1	0.000	
8	  C7	37.869	-5.648	106.645	C.3	1	RES1	0.000	
9	  C8	38.867	-4.534	106.936	C.3	1	RES1	0.000	
10	  C9	40.310	-4.966	106.694	C.3	1	RES1	0.000	
11	 C10	41.314	-4.060	107.445	C.3	1	RES1	0.000	
12	 C11	42.733	-4.533	107.236	C.3	1	RES1	0.000	
13	 C12	43.715	-3.718	108.110	C.3	1	RES1	0.000	
14	 C13	44.732	-2.993	107.241	C.3	1	RES1	0.000	
15	 C14	45.729	-2.253	108.114	C.3	1	RES1	0.000	
@<TRIPOS>BOND
1 1 3 1
2 2 15 1
3 3 4 1
4 4 5 1
5 5 6 1
6 6 7 1
7 7 8 1
8 8 9 1
9 9 10 1
10 10 11 1
11 11 12 1
12 12 13 1
13 13 14 1
14 14 15 1
@<TRIPOS>SUBSTRUCTURE
1	RES1	1	GROUP	1 ****	RES
