# created with PyMOL 2.5.2
@<TRIPOS>MOLECULE
SHP2_5EHR_TargetProtein
23 25 1                 
SMALL
USER_CHARGES
@<TRIPOS>ATOM
1	 CL1	17.440	40.627	8.952	Cl	1	RES1	0.000	
2	 CL2	20.431	41.282	8.035	Cl	1	RES1	0.000	
3	  C1	28.487	42.427	1.357	C.3	1	RES1	0.000	
4	  N1	27.893	43.154	3.616	N.3	1	RES1	0.000	
5	  C2	27.385	42.458	2.453	C.3	1	RES1	0.000	
6	  N8	24.700	41.761	3.348	N.pl3	1	RES1	0.000	
7	  N9	21.027	41.841	4.118	N.2	1	RES1	0.000	
8	 N10	22.140	39.053	6.288	N.pl3	1	RES1	0.000	
9	 N11	23.355	40.420	4.823	N.2	1	RES1	0.000	
10	 C25	27.012	41.025	2.817	C.3	1	RES1	0.000	
11	 C26	25.839	40.956	3.805	C.3	1	RES1	0.000	
12	 C27	23.433	41.427	3.950	C.2	1	RES1	0.000	
13	 C28	22.246	42.127	3.588	C.2	1	RES1	0.000	
14	 C29	20.992	40.816	5.024	C.2	1	RES1	0.000	
15	 C30	19.631	40.536	5.549	C.2	1	RES1	0.000	
16	 C31	18.687	40.041	4.647	C.2	1	RES1	0.000	
17	 C32	17.386	39.737	5.043	C.2	1	RES1	0.000	
18	 C33	17.029	39.947	6.376	C.2	1	RES1	0.000	
19	 C34	17.968	40.425	7.313	C.2	1	RES1	0.000	
20	 C35	19.290	40.732	6.877	C.2	1	RES1	0.000	
21	 C36	22.158	40.139	5.391	C.2	1	RES1	0.000	
22	 C37	24.978	43.154	2.903	C.3	1	RES1	0.000	
23	 C38	26.144	43.186	1.934	C.3	1	RES1	0.000	
@<TRIPOS>BOND
1 1 19 1
2 2 20 1
3 3 5 1
4 4 5 1
5 5 10 1
6 5 23 1
7 8 21 1
8 9 12 ar
9 9 21 ar
10 10 11 1
11 6 11 1
12 6 12 1
13 12 13 ar
14 7 13 ar
15 7 14 ar
16 14 15 1
17 14 21 ar
18 15 16 ar
19 15 20 ar
20 16 17 ar
21 17 18 ar
22 18 19 ar
23 19 20 ar
24 6 22 1
25 22 23 1
@<TRIPOS>SUBSTRUCTURE
1	RES1	1	GROUP	1 ****	RES
