# created with PyMOL 2.5.2
@<TRIPOS>MOLECULE
SHP2_5EHR_TargetProtein
23 25 1                 
SMALL
USER_CHARGES
@<TRIPOS>ATOM
1	 CL1	17.430	40.650	8.931	Cl	1	RES1	0.000	
2	 CL2	20.448	41.315	8.031	Cl	1	RES1	0.000	
3	  C1	28.460	42.441	1.362	C.3	1	RES1	0.000	
4	  N1	27.922	43.145	3.630	N.3	1	RES1	0.000	
5	  C2	27.389	42.444	2.429	C.3	1	RES1	0.000	
6	  N8	24.700	41.761	3.359	N.pl3	1	RES1	0.000	
7	  N9	21.014	41.843	4.115	N.2	1	RES1	0.000	
8	 N10	22.144	39.043	6.259	N.pl3	1	RES1	0.000	
9	 N11	23.338	40.422	4.811	N.2	1	RES1	0.000	
10	 C27	26.987	41.028	2.810	C.3	1	RES1	0.000	
11	 C28	25.851	40.969	3.803	C.3	1	RES1	0.000	
12	 C29	23.453	41.435	3.923	C.2	1	RES1	0.000	
13	 C30	22.237	42.108	3.587	C.2	1	RES1	0.000	
14	 C31	20.985	40.812	5.033	C.2	1	RES1	0.000	
15	 C32	19.660	40.532	5.545	C.2	1	RES1	0.000	
16	 C33	18.677	40.022	4.650	C.2	1	RES1	0.000	
17	 C34	17.385	39.738	5.067	C.2	1	RES1	0.000	
18	 C35	17.039	39.939	6.391	C.2	1	RES1	0.000	
19	 C36	17.959	40.426	7.302	C.2	1	RES1	0.000	
20	 C37	19.278	40.715	6.881	C.2	1	RES1	0.000	
21	 C38	22.154	40.133	5.403	C.2	1	RES1	0.000	
22	 C39	24.995	43.149	2.931	C.3	1	RES1	0.000	
23	 C40	26.150	43.200	1.955	C.3	1	RES1	0.000	
@<TRIPOS>BOND
1 1 19 1
2 2 20 1
3 3 5 1
4 4 5 1
5 5 10 1
6 5 23 1
7 8 21 1
8 9 12 ar
9 9 21 ar
10 10 11 1
11 6 11 1
12 6 12 1
13 12 13 ar
14 7 13 ar
15 7 14 ar
16 14 15 1
17 14 21 ar
18 15 16 ar
19 15 20 ar
20 16 17 ar
21 17 18 ar
22 18 19 ar
23 19 20 ar
24 6 22 1
25 22 23 1
@<TRIPOS>SUBSTRUCTURE
1	RES1	1	GROUP	1 ****	RES
