# created with PyMOL 2.5.2
@<TRIPOS>MOLECULE
SHP2_5EHR_TargetProtein
23 25 1                 
SMALL
USER_CHARGES
@<TRIPOS>ATOM
1	 CL1	17.480	40.675	8.965	Cl	1	RES1	0.000	
2	 CL2	20.479	41.296	8.014	Cl	1	RES1	0.000	
3	  C1	28.481	42.449	1.377	C.3	1	RES1	0.000	
4	  N1	27.911	43.151	3.660	N.3	1	RES1	0.000	
5	  C2	27.397	42.475	2.454	C.3	1	RES1	0.000	
6	  N8	24.718	41.780	3.340	N.pl3	1	RES1	0.000	
7	  N9	21.035	41.838	4.085	N.2	1	RES1	0.000	
8	 N10	22.117	39.032	6.265	N.pl3	1	RES1	0.000	
9	 N11	23.317	40.409	4.815	N.2	1	RES1	0.000	
10	 C29	27.022	41.022	2.833	C.3	1	RES1	0.000	
11	 C30	25.845	40.952	3.831	C.3	1	RES1	0.000	
12	 C31	23.421	41.446	3.917	C.2	1	RES1	0.000	
13	 C32	22.245	42.102	3.576	C.2	1	RES1	0.000	
14	 C33	20.977	40.825	4.988	C.2	1	RES1	0.000	
15	 C34	19.638	40.504	5.525	C.2	1	RES1	0.000	
16	 C35	18.666	40.008	4.632	C.2	1	RES1	0.000	
17	 C36	17.386	39.730	5.086	C.2	1	RES1	0.000	
18	 C37	17.020	39.934	6.428	C.2	1	RES1	0.000	
19	 C38	17.968	40.454	7.303	C.2	1	RES1	0.000	
20	 C39	19.285	40.733	6.879	C.2	1	RES1	0.000	
21	 C40	22.144	40.116	5.375	C.2	1	RES1	0.000	
22	 C41	24.966	43.154	2.921	C.3	1	RES1	0.000	
23	 C42	26.135	43.186	1.937	C.3	1	RES1	0.000	
@<TRIPOS>BOND
1 1 19 1
2 2 20 1
3 3 5 1
4 4 5 1
5 5 10 1
6 5 23 1
7 8 21 1
8 9 12 ar
9 9 21 ar
10 10 11 1
11 6 11 1
12 6 12 1
13 12 13 ar
14 7 13 ar
15 7 14 ar
16 14 15 1
17 14 21 ar
18 15 16 ar
19 15 20 ar
20 16 17 ar
21 17 18 ar
22 18 19 ar
23 19 20 ar
24 6 22 1
25 22 23 1
@<TRIPOS>SUBSTRUCTURE
1	RES1	1	GROUP	1 ****	RES
