# created with PyMOL 2.5.2
@<TRIPOS>MOLECULE
SHP2_5EHR_TargetProtein
23 25 1                 
SMALL
USER_CHARGES
@<TRIPOS>ATOM
1	 CL1	17.480	40.653	8.944	Cl	1	RES1	0.000	
2	 CL2	20.452	41.323	8.009	Cl	1	RES1	0.000	
3	  C1	28.491	42.433	1.371	C.3	1	RES1	0.000	
4	  N1	27.929	43.154	3.652	N.3	1	RES1	0.000	
5	  C2	27.390	42.450	2.445	C.3	1	RES1	0.000	
6	  N8	24.696	41.760	3.349	N.pl3	1	RES1	0.000	
7	  N9	21.015	41.837	4.095	N.2	1	RES1	0.000	
8	 N10	22.112	39.060	6.263	N.pl3	1	RES1	0.000	
9	 N11	23.324	40.438	4.814	N.2	1	RES1	0.000	
10	 C31	26.990	41.023	2.829	C.3	1	RES1	0.000	
11	 C32	25.840	40.952	3.806	C.3	1	RES1	0.000	
12	 C33	23.421	41.447	3.922	C.2	1	RES1	0.000	
13	 C34	22.266	42.112	3.583	C.2	1	RES1	0.000	
14	 C35	20.981	40.838	5.005	C.2	1	RES1	0.000	
15	 C36	19.608	40.511	5.531	C.2	1	RES1	0.000	
16	 C37	18.680	40.002	4.642	C.2	1	RES1	0.000	
17	 C38	17.373	39.713	5.088	C.2	1	RES1	0.000	
18	 C39	17.044	39.927	6.424	C.2	1	RES1	0.000	
19	 C40	17.977	40.429	7.307	C.2	1	RES1	0.000	
20	 C41	19.278	40.734	6.884	C.2	1	RES1	0.000	
21	 C42	22.163	40.129	5.357	C.2	1	RES1	0.000	
22	 C43	24.980	43.148	2.938	C.3	1	RES1	0.000	
23	 C44	26.161	43.200	1.948	C.3	1	RES1	0.000	
@<TRIPOS>BOND
1 1 19 1
2 2 20 1
3 3 5 1
4 4 5 1
5 5 10 1
6 5 23 1
7 8 21 1
8 9 12 ar
9 9 21 ar
10 10 11 1
11 6 11 1
12 6 12 1
13 12 13 ar
14 7 13 ar
15 7 14 ar
16 14 15 1
17 14 21 ar
18 15 16 ar
19 15 20 ar
20 16 17 ar
21 17 18 ar
22 18 19 ar
23 19 20 ar
24 6 22 1
25 22 23 1
@<TRIPOS>SUBSTRUCTURE
1	RES1	1	GROUP	1 ****	RES
