# created with PyMOL 2.5.2
@<TRIPOS>MOLECULE
GSK_4PTC_TargetProtein
22 24 1                 
SMALL
USER_CHARGES
@<TRIPOS>ATOM
1	  C1	-4.922	-0.102	-31.702	C.3	1	RES1	0.000	
2	  N1	-7.234	-3.475	-32.472	N.pl3	1	RES1	0.000	
3	  O1	-5.511	-1.300	-32.183	O.3	1	RES1	0.000	
4	  S1	-5.190	-2.648	-35.769	S.2	1	RES1	0.000	
5	  C2	-5.211	-1.544	-33.501	C.2	1	RES1	0.000	
6	  O2	-6.959	-4.666	-34.347	O.2	1	RES1	0.000	
7	  C3	-5.777	-2.641	-34.148	C.2	1	RES1	0.000	
8	  C4	-6.676	-3.656	-33.706	C.2	1	RES1	0.000	
9	  N5	-1.833	0.691	-38.427	N.2	1	RES1	0.000	
10	  N6	-1.498	2.516	-36.905	N.pl3	1	RES1	0.000	
11	  N7	-4.367	-0.761	-34.224	N.2	1	RES1	0.000	
12	  O9	-2.931	3.125	-35.159	O.2	1	RES1	0.000	
13	 C23	-4.263	-1.225	-35.460	C.2	1	RES1	0.000	
14	 C24	-3.434	-0.612	-36.502	C.2	1	RES1	0.000	
15	 C25	-3.178	-1.187	-37.793	C.2	1	RES1	0.000	
16	 C26	-2.385	-0.499	-38.665	C.2	1	RES1	0.000	
17	 C27	-2.043	1.253	-37.225	C.2	1	RES1	0.000	
18	 C28	-1.961	3.360	-35.913	C.2	1	RES1	0.000	
19	 C29	-1.220	4.614	-35.799	C.3	1	RES1	0.000	
20	 C30	-1.543	5.611	-34.698	C.3	1	RES1	0.000	
21	 C31	-1.881	5.957	-36.133	C.3	1	RES1	0.000	
22	 C32	-2.835	0.656	-36.269	C.2	1	RES1	0.000	
@<TRIPOS>BOND
1 1 3 1
2 2 8 1
3 3 5 1
4 4 7 ar
5 4 13 ar
6 5 7 ar
7 5 11 ar
8 6 8 2
9 7 8 1
10 11 13 ar
11 13 14 1
12 14 15 ar
13 14 22 ar
14 15 16 ar
15 9 16 ar
16 9 17 ar
17 10 17 1
18 17 22 ar
19 10 18 1
20 12 18 2
21 18 19 1
22 19 20 1
23 19 21 1
24 20 21 1
@<TRIPOS>SUBSTRUCTURE
1	RES1	1	GROUP	1 ****	RES
