# created with PyMOL 2.5.2
@<TRIPOS>MOLECULE
GSK_4PTC_TargetProtein
22 24 1                 
SMALL
USER_CHARGES
@<TRIPOS>ATOM
1	  C1	-5.283	-0.355	-31.579	C.3	1	RES1	0.000	
2	  N1	-7.313	-3.841	-32.575	N.pl3	1	RES1	0.000	
3	  O1	-5.689	-1.622	-32.104	O.3	1	RES1	0.000	
4	  S1	-5.225	-2.701	-35.769	S.2	1	RES1	0.000	
5	  C2	-5.319	-1.762	-33.426	C.2	1	RES1	0.000	
6	  O2	-6.956	-4.851	-34.524	O.2	1	RES1	0.000	
7	  C3	-5.810	-2.804	-34.172	C.2	1	RES1	0.000	
8	  C4	-6.704	-3.908	-33.800	C.2	1	RES1	0.000	
9	  N5	-1.904	0.755	-38.290	N.2	1	RES1	0.000	
10	  N6	-1.558	2.578	-36.910	N.pl3	1	RES1	0.000	
11	  N7	-4.483	-0.865	-34.095	N.2	1	RES1	0.000	
12	  O9	-2.723	3.521	-35.118	O.2	1	RES1	0.000	
13	 C24	-4.335	-1.268	-35.376	C.2	1	RES1	0.000	
14	 C25	-3.513	-0.553	-36.332	C.2	1	RES1	0.000	
15	 C26	-3.249	-1.140	-37.592	C.2	1	RES1	0.000	
16	 C27	-2.467	-0.457	-38.482	C.2	1	RES1	0.000	
17	 C28	-2.144	1.317	-37.067	C.2	1	RES1	0.000	
18	 C29	-1.851	3.566	-35.968	C.2	1	RES1	0.000	
19	 C30	-1.025	4.809	-36.070	C.3	1	RES1	0.000	
20	 C31	-1.118	5.943	-35.075	C.3	1	RES1	0.000	
21	 C32	-1.618	6.158	-36.456	C.3	1	RES1	0.000	
22	 C33	-2.924	0.691	-36.099	C.2	1	RES1	0.000	
@<TRIPOS>BOND
1 1 3 1
2 2 8 1
3 3 5 1
4 4 7 ar
5 4 13 ar
6 5 7 ar
7 5 11 ar
8 6 8 2
9 7 8 1
10 11 13 ar
11 13 14 1
12 14 15 ar
13 14 22 ar
14 15 16 ar
15 9 16 ar
16 9 17 ar
17 10 17 1
18 17 22 ar
19 10 18 1
20 12 18 2
21 18 19 1
22 19 20 1
23 19 21 1
24 20 21 1
@<TRIPOS>SUBSTRUCTURE
1	RES1	1	GROUP	1 ****	RES
