# created with PyMOL 2.5.2
@<TRIPOS>MOLECULE
GSK_4PTC_TargetProtein
22 24 1                 
SMALL
USER_CHARGES
@<TRIPOS>ATOM
1	  C1	-5.144	-0.302	-31.604	C.3	1	RES1	0.000	
2	  N1	-7.298	-3.719	-32.533	N.pl3	1	RES1	0.000	
3	  O1	-5.624	-1.547	-32.144	O.3	1	RES1	0.000	
4	  S1	-5.219	-2.715	-35.783	S.2	1	RES1	0.000	
5	  C2	-5.319	-1.716	-33.453	C.2	1	RES1	0.000	
6	  O2	-6.951	-4.837	-34.440	O.2	1	RES1	0.000	
7	  C3	-5.814	-2.793	-34.153	C.2	1	RES1	0.000	
8	  C4	-6.704	-3.871	-33.783	C.2	1	RES1	0.000	
9	  N5	-1.876	0.759	-38.264	N.2	1	RES1	0.000	
10	  N6	-1.527	2.586	-36.914	N.pl3	1	RES1	0.000	
11	  N7	-4.476	-0.874	-34.155	N.2	1	RES1	0.000	
12	  O9	-2.707	3.429	-35.070	O.2	1	RES1	0.000	
13	 C26	-4.357	-1.292	-35.422	C.2	1	RES1	0.000	
14	 C27	-3.511	-0.575	-36.398	C.2	1	RES1	0.000	
15	 C28	-3.236	-1.146	-37.635	C.2	1	RES1	0.000	
16	 C29	-2.419	-0.453	-38.552	C.2	1	RES1	0.000	
17	 C30	-2.133	1.304	-37.081	C.2	1	RES1	0.000	
18	 C31	-1.883	3.543	-35.959	C.2	1	RES1	0.000	
19	 C32	-1.074	4.789	-36.029	C.3	1	RES1	0.000	
20	 C33	-1.275	5.874	-34.985	C.3	1	RES1	0.000	
21	 C34	-1.586	6.144	-36.423	C.3	1	RES1	0.000	
22	 C35	-2.938	0.675	-36.122	C.2	1	RES1	0.000	
@<TRIPOS>BOND
1 1 3 1
2 2 8 1
3 3 5 1
4 4 7 ar
5 4 13 ar
6 5 7 ar
7 5 11 ar
8 6 8 2
9 7 8 1
10 11 13 ar
11 13 14 1
12 14 15 ar
13 14 22 ar
14 15 16 ar
15 9 16 ar
16 9 17 ar
17 10 17 1
18 17 22 ar
19 10 18 1
20 12 18 2
21 18 19 1
22 19 20 1
23 19 21 1
24 20 21 1
@<TRIPOS>SUBSTRUCTURE
1	RES1	1	GROUP	1 ****	RES
