# created with PyMOL 2.5.2
@<TRIPOS>MOLECULE
BRD4_6YQN_TargetProtein
24 27 1                 
SMALL
USER_CHARGES
@<TRIPOS>ATOM
1	 CL1	25.739	17.892	-6.965	Cl	1	RES1	0.000	
2	  C1	26.027	15.088	1.280	C.3	1	RES1	0.000	
3	  N1	30.787	16.836	0.004	N.2	1	RES1	0.000	
4	  S1	28.503	16.321	1.364	S.2	1	RES1	0.000	
5	  C2	27.228	15.498	0.526	C.2	1	RES1	0.000	
6	  N2	32.704	17.790	0.535	N.2	1	RES1	0.000	
7	  C3	27.537	15.296	-0.798	C.2	1	RES1	0.000	
8	  N3	32.913	16.946	-0.528	N.2	1	RES1	0.000	
9	  C4	26.600	14.562	-1.755	C.3	1	RES1	0.000	
10	  C5	28.818	15.896	-1.196	C.2	1	RES1	0.000	
11	  C6	29.470	16.356	-0.063	C.2	1	RES1	0.000	
12	  C7	31.433	17.701	0.872	C.2	1	RES1	0.000	
13	  C8	30.788	18.481	1.944	C.3	1	RES1	0.000	
14	  C9	31.785	16.379	-0.850	C.2	1	RES1	0.000	
15	 C10	31.553	15.307	-1.859	C.3	1	RES1	0.000	
16	 N10	30.571	15.773	-2.869	N.2	1	RES1	0.000	
17	 C11	32.845	14.963	-2.584	C.3	1	RES1	0.000	
18	 C35	29.348	16.018	-2.556	C.2	1	RES1	0.000	
19	 C36	28.424	16.492	-3.644	C.2	1	RES1	0.000	
20	 C37	27.325	17.307	-3.379	C.2	1	RES1	0.000	
21	 C38	26.501	17.758	-4.397	C.2	1	RES1	0.000	
22	 C39	26.765	17.375	-5.713	C.2	1	RES1	0.000	
23	 C40	27.848	16.546	-6.003	C.2	1	RES1	0.000	
24	 C41	28.693	16.100	-4.977	C.2	1	RES1	0.000	
@<TRIPOS>BOND
1 1 22 1
2 2 5 1
3 3 11 1
4 3 12 ar
5 3 14 ar
6 4 5 ar
7 4 11 ar
8 5 7 ar
9 6 8 ar
10 6 12 ar
11 7 9 1
12 7 10 ar
13 8 14 ar
14 10 11 ar
15 12 13 1
16 14 15 1
17 15 16 1
18 15 17 1
19 16 18 2
20 10 18 1
21 18 19 1
22 19 20 ar
23 19 24 ar
24 20 21 ar
25 21 22 ar
26 22 23 ar
27 23 24 ar
@<TRIPOS>SUBSTRUCTURE
1	RES1	1	GROUP	1 ****	RES
