# created with PyMOL 2.5.2
@<TRIPOS>MOLECULE
BRD9_6HM0_TargetProtein
33 36 1                 
SMALL
USER_CHARGES
@<TRIPOS>ATOM
1	  C1	6.080	-3.830	-1.476	C.3	1	RES1	0.000	
2	  N1	9.535	0.345	-4.971	N.2	1	RES1	0.000	
3	  O1	4.947	-3.658	-2.304	O.3	1	RES1	0.000	
4	  C2	4.968	-2.544	-3.196	C.2	1	RES1	0.000	
5	  N2	7.887	0.141	-9.537	N.2	1	RES1	0.000	
6	  O2	10.856	0.978	-6.767	O.2	1	RES1	0.000	
7	  C3	6.113	-2.043	-3.804	C.2	1	RES1	0.000	
8	  N3	1.959	-1.634	-1.732	N.3	1	RES1	0.000	
9	  O3	2.371	-0.344	-4.631	O.3	1	RES1	0.000	
10	  C4	6.045	-0.972	-4.666	C.2	1	RES1	0.000	
11	  N4	1.662	0.955	-0.356	N.3	1	RES1	0.000	
12	  O4	-0.549	3.399	0.877	O.3	1	RES1	0.000	
13	  C5	7.281	-0.463	-5.309	C.2	1	RES1	0.000	
14	  C6	8.346	-0.139	-4.515	C.2	1	RES1	0.000	
15	  C7	10.571	0.638	-3.984	C.3	1	RES1	0.000	
16	  C8	9.812	0.577	-6.345	C.2	1	RES1	0.000	
17	  C9	8.701	0.243	-7.266	C.2	1	RES1	0.000	
18	 C10	8.864	0.429	-8.633	C.2	1	RES1	0.000	
19	 C11	6.734	-0.329	-9.044	C.2	1	RES1	0.000	
20	 C12	6.482	-0.540	-7.706	C.2	1	RES1	0.000	
21	 C13	7.475	-0.262	-6.772	C.2	1	RES1	0.000	
22	 C14	4.841	-0.400	-4.977	C.2	1	RES1	0.000	
23	 C15	3.668	-0.882	-4.401	C.2	1	RES1	0.000	
24	 C16	2.191	0.364	-5.866	C.3	1	RES1	0.000	
25	 C17	3.705	-1.974	-3.484	C.2	1	RES1	0.000	
26	 C18	2.430	-2.483	-2.853	C.3	1	RES1	0.000	
27	 C19	0.926	-0.628	-2.149	C.3	1	RES1	0.000	
28	 C20	0.497	0.256	-0.987	C.3	1	RES1	0.000	
29	 C21	1.267	1.807	0.808	C.3	1	RES1	0.000	
30	 C22	0.804	3.207	0.417	C.3	1	RES1	0.000	
31	 C23	-0.816	4.734	1.278	C.3	1	RES1	0.000	
32	 C46	2.680	-0.028	0.064	C.3	1	RES1	0.000	
33	 C47	3.111	-0.909	-1.120	C.3	1	RES1	0.000	
@<TRIPOS>BOND
1 2 14 ar
2 2 15 1
3 2 16 ar
4 1 3 1
5 3 4 1
6 4 7 ar
7 6 16 2
8 7 10 ar
9 8 33 1
10 10 13 1
11 11 32 1
12 13 14 ar
13 16 17 ar
14 5 18 ar
15 17 18 ar
16 5 19 ar
17 19 20 ar
18 20 21 ar
19 13 21 ar
20 17 21 ar
21 10 22 ar
22 22 23 ar
23 9 23 1
24 23 25 ar
25 9 24 1
26 4 25 ar
27 25 26 1
28 8 26 1
29 8 27 1
30 27 28 1
31 11 28 1
32 11 29 1
33 29 30 1
34 12 30 1
35 12 31 1
36 32 33 1
@<TRIPOS>SUBSTRUCTURE
1	RES1	1	GROUP	1 ****	RES
