# created with PyMOL 2.5.2
@<TRIPOS>MOLECULE
GSK_4PTC_TargetProtein
21 23 1                 
SMALL
USER_CHARGES
@<TRIPOS>ATOM
1	  C1	-6.713	-3.836	-33.740	C.2	1	RES1	0.000	
2	  N1	-7.293	-3.679	-32.488	N.pl3	1	RES1	0.000	
3	  O1	-6.981	-4.817	-34.402	O.2	1	RES1	0.000	
4	  S1	-5.210	-2.746	-35.756	S.2	1	RES1	0.000	
5	  C2	-5.808	-2.767	-34.169	C.2	1	RES1	0.000	
6	  O2	-5.581	-1.434	-32.194	O.3	1	RES1	0.000	
7	  C3	-5.283	-1.703	-33.493	C.2	1	RES1	0.000	
8	  N4	-4.453	-0.881	-34.200	N.2	1	RES1	0.000	
9	  N5	-1.881	0.759	-38.304	N.2	1	RES1	0.000	
10	  N6	-1.558	2.550	-36.895	N.pl3	1	RES1	0.000	
11	  O7	-2.754	3.445	-35.097	O.2	1	RES1	0.000	
12	 C21	-4.325	-1.299	-35.429	C.2	1	RES1	0.000	
13	 C22	-3.498	-0.620	-36.446	C.2	1	RES1	0.000	
14	 C23	-3.205	-1.171	-37.697	C.2	1	RES1	0.000	
15	 C24	-2.382	-0.452	-38.577	C.2	1	RES1	0.000	
16	 C25	-2.158	1.302	-37.107	C.2	1	RES1	0.000	
17	 C26	-1.860	3.524	-35.950	C.2	1	RES1	0.000	
18	 C27	-1.074	4.773	-35.985	C.3	1	RES1	0.000	
19	 C28	-1.248	5.862	-34.938	C.3	1	RES1	0.000	
20	 C29	-1.708	6.111	-36.303	C.3	1	RES1	0.000	
21	 C30	-2.954	0.643	-36.128	C.2	1	RES1	0.000	
@<TRIPOS>BOND
1 1 5 1
2 1 2 1
3 1 3 2
4 4 5 ar
5 4 12 ar
6 5 7 ar
7 6 7 1
8 7 8 ar
9 8 12 ar
10 12 13 1
11 13 14 ar
12 13 21 ar
13 14 15 ar
14 9 15 ar
15 9 16 ar
16 10 16 1
17 16 21 ar
18 10 17 1
19 11 17 2
20 17 18 1
21 18 19 1
22 18 20 1
23 19 20 1
@<TRIPOS>SUBSTRUCTURE
1	RES1	1	GROUP	1 ****	RES
