# created with PyMOL 2.5.2
@<TRIPOS>MOLECULE
GSK_4PTC_TargetProtein
22 24 1                 
SMALL
USER_CHARGES
@<TRIPOS>ATOM
1	  C1	-8.112	-4.520	-31.871	C.3	1	RES1	0.000	
2	  N1	-7.189	-3.569	-32.464	N.pl3	1	RES1	0.000	
3	  O1	-6.840	-4.753	-34.354	O.2	1	RES1	0.000	
4	  S1	-5.143	-2.666	-35.725	S.2	1	RES1	0.000	
5	  C2	-6.607	-3.770	-33.689	C.2	1	RES1	0.000	
6	  O2	-5.552	-1.321	-32.198	O.3	1	RES1	0.000	
7	  C3	-5.736	-2.694	-34.114	C.2	1	RES1	0.000	
8	  C4	-5.263	-1.575	-33.474	C.2	1	RES1	0.000	
9	  N4	-4.439	-0.752	-34.183	N.2	1	RES1	0.000	
10	  N5	-1.891	0.659	-38.459	N.2	1	RES1	0.000	
11	  N6	-1.689	2.629	-37.134	N.pl3	1	RES1	0.000	
12	  O7	-3.135	3.352	-35.440	O.2	1	RES1	0.000	
13	 C23	-4.254	-1.216	-35.412	C.2	1	RES1	0.000	
14	 C24	-3.438	-0.549	-36.433	C.2	1	RES1	0.000	
15	 C25	-3.120	-1.216	-37.607	C.2	1	RES1	0.000	
16	 C26	-2.375	-0.610	-38.600	C.2	1	RES1	0.000	
17	 C27	-2.184	1.325	-37.334	C.2	1	RES1	0.000	
18	 C28	-2.179	3.538	-36.194	C.2	1	RES1	0.000	
19	 C29	-1.490	4.847	-36.119	C.3	1	RES1	0.000	
20	 C30	-0.577	5.232	-34.948	C.3	1	RES1	0.000	
21	 C31	-1.893	5.918	-35.120	C.3	1	RES1	0.000	
22	 C32	-2.933	0.759	-36.301	C.2	1	RES1	0.000	
@<TRIPOS>BOND
1 1 2 1
2 2 5 1
3 3 5 2
4 4 7 ar
5 4 13 ar
6 5 7 1
7 6 8 1
8 7 8 ar
9 8 9 ar
10 9 13 ar
11 13 14 1
12 14 15 ar
13 14 22 ar
14 15 16 ar
15 10 16 ar
16 10 17 ar
17 11 17 1
18 17 22 ar
19 11 18 1
20 12 18 2
21 18 19 1
22 19 20 1
23 19 21 1
24 20 21 1
@<TRIPOS>SUBSTRUCTURE
1	RES1	1	GROUP	1 ****	RES
