# created with PyMOL 2.5.2
@<TRIPOS>MOLECULE
GSK_4PTC_TargetProtein
21 23 1                 
SMALL
USER_CHARGES
@<TRIPOS>ATOM
1	  C1	-6.723	-3.908	-33.802	C.2	1	RES1	0.000	
2	  N1	-7.314	-3.799	-32.596	N.pl3	1	RES1	0.000	
3	  O1	-6.953	-4.902	-34.505	O.2	1	RES1	0.000	
4	  S1	-5.220	-2.723	-35.773	S.2	1	RES1	0.000	
5	  C2	-5.824	-2.832	-34.169	C.2	1	RES1	0.000	
6	  O2	-5.633	-1.591	-32.170	O.3	1	RES1	0.000	
7	  C3	-5.330	-1.771	-33.447	C.2	1	RES1	0.000	
8	  N4	-4.508	-0.925	-34.086	N.2	1	RES1	0.000	
9	  N5	-1.929	0.759	-38.265	N.2	1	RES1	0.000	
10	  N6	-1.528	2.586	-36.910	N.pl3	1	RES1	0.000	
11	  O8	-2.676	3.523	-35.104	O.2	1	RES1	0.000	
12	 C22	-4.348	-1.275	-35.361	C.2	1	RES1	0.000	
13	 C23	-3.517	-0.559	-36.318	C.2	1	RES1	0.000	
14	 C24	-3.261	-1.120	-37.567	C.2	1	RES1	0.000	
15	 C25	-2.467	-0.474	-38.494	C.2	1	RES1	0.000	
16	 C26	-2.154	1.341	-37.057	C.2	1	RES1	0.000	
17	 C27	-1.818	3.585	-35.986	C.2	1	RES1	0.000	
18	 C28	-1.011	4.813	-36.074	C.3	1	RES1	0.000	
19	 C29	-1.123	5.952	-35.074	C.3	1	RES1	0.000	
20	 C30	-1.640	6.170	-36.478	C.3	1	RES1	0.000	
21	 C31	-2.948	0.716	-36.069	C.2	1	RES1	0.000	
@<TRIPOS>BOND
1 1 5 1
2 1 2 1
3 1 3 2
4 4 5 ar
5 4 12 ar
6 5 7 ar
7 6 7 1
8 7 8 ar
9 8 12 ar
10 12 13 1
11 13 14 ar
12 13 21 ar
13 14 15 ar
14 9 15 ar
15 9 16 ar
16 10 16 1
17 16 21 ar
18 10 17 1
19 11 17 2
20 17 18 1
21 18 19 1
22 18 20 1
23 19 20 1
@<TRIPOS>SUBSTRUCTURE
1	RES1	1	GROUP	1 ****	RES
