# created with PyMOL 2.5.2
@<TRIPOS>MOLECULE
GSK_4PTC_TargetProtein
22 24 1                 
SMALL
USER_CHARGES
@<TRIPOS>ATOM
1	  C1	-8.234	-4.728	-31.997	C.3	1	RES1	0.000	
2	  N1	-7.295	-3.737	-32.540	N.pl3	1	RES1	0.000	
3	  O1	-6.964	-4.885	-34.507	O.2	1	RES1	0.000	
4	  S1	-5.227	-2.736	-35.784	S.2	1	RES1	0.000	
5	  C2	-6.724	-3.910	-33.763	C.2	1	RES1	0.000	
6	  O2	-5.628	-1.542	-32.164	O.3	1	RES1	0.000	
7	  C3	-5.821	-2.828	-34.175	C.2	1	RES1	0.000	
8	  C4	-5.322	-1.742	-33.434	C.2	1	RES1	0.000	
9	  N4	-4.477	-0.910	-34.118	N.2	1	RES1	0.000	
10	  N5	-1.889	0.744	-38.270	N.2	1	RES1	0.000	
11	  N6	-1.540	2.552	-36.897	N.pl3	1	RES1	0.000	
12	  O8	-2.705	3.529	-35.128	O.2	1	RES1	0.000	
13	 C23	-4.350	-1.302	-35.389	C.2	1	RES1	0.000	
14	 C24	-3.503	-0.576	-36.363	C.2	1	RES1	0.000	
15	 C25	-3.250	-1.126	-37.624	C.2	1	RES1	0.000	
16	 C26	-2.444	-0.442	-38.528	C.2	1	RES1	0.000	
17	 C27	-2.165	1.311	-37.067	C.2	1	RES1	0.000	
18	 C28	-1.845	3.564	-35.961	C.2	1	RES1	0.000	
19	 C29	-1.022	4.811	-36.039	C.3	1	RES1	0.000	
20	 C30	-1.161	5.934	-35.035	C.3	1	RES1	0.000	
21	 C31	-1.646	6.173	-36.425	C.3	1	RES1	0.000	
22	 C32	-2.948	0.683	-36.089	C.2	1	RES1	0.000	
@<TRIPOS>BOND
1 1 2 1
2 2 5 1
3 3 5 2
4 4 7 ar
5 4 13 ar
6 5 7 1
7 6 8 1
8 7 8 ar
9 8 9 ar
10 9 13 ar
11 13 14 1
12 14 15 ar
13 14 22 ar
14 15 16 ar
15 10 16 ar
16 10 17 ar
17 11 17 1
18 17 22 ar
19 11 18 1
20 12 18 2
21 18 19 1
22 19 20 1
23 19 21 1
24 20 21 1
@<TRIPOS>SUBSTRUCTURE
1	RES1	1	GROUP	1 ****	RES
