# created with PyMOL 2.5.2
@<TRIPOS>MOLECULE
GSK_4PTC_TargetProtein
22 24 1                 
SMALL
USER_CHARGES
@<TRIPOS>ATOM
1	  C1	-8.238	-4.771	-32.038	C.3	1	RES1	0.000	
2	  N1	-7.326	-3.786	-32.565	N.pl3	1	RES1	0.000	
3	  O1	-6.948	-4.905	-34.522	O.2	1	RES1	0.000	
4	  S1	-5.232	-2.712	-35.777	S.2	1	RES1	0.000	
5	  C2	-6.727	-3.921	-33.802	C.2	1	RES1	0.000	
6	  O2	-5.606	-1.602	-32.134	O.3	1	RES1	0.000	
7	  C3	-5.812	-2.829	-34.178	C.2	1	RES1	0.000	
8	  C4	-5.343	-1.783	-33.451	C.2	1	RES1	0.000	
9	  N4	-4.527	-0.906	-34.098	N.2	1	RES1	0.000	
10	  N5	-1.918	0.751	-38.245	N.2	1	RES1	0.000	
11	  N6	-1.529	2.588	-36.913	N.pl3	1	RES1	0.000	
12	  O8	-2.697	3.523	-35.123	O.2	1	RES1	0.000	
13	 C24	-4.355	-1.290	-35.357	C.2	1	RES1	0.000	
14	 C25	-3.513	-0.556	-36.335	C.2	1	RES1	0.000	
15	 C26	-3.250	-1.124	-37.571	C.2	1	RES1	0.000	
16	 C27	-2.464	-0.462	-38.494	C.2	1	RES1	0.000	
17	 C28	-2.155	1.335	-37.070	C.2	1	RES1	0.000	
18	 C29	-1.841	3.583	-35.968	C.2	1	RES1	0.000	
19	 C30	-1.016	4.818	-36.069	C.3	1	RES1	0.000	
20	 C31	-1.114	5.956	-35.087	C.3	1	RES1	0.000	
21	 C32	-1.618	6.180	-36.469	C.3	1	RES1	0.000	
22	 C33	-2.937	0.706	-36.073	C.2	1	RES1	0.000	
@<TRIPOS>BOND
1 1 2 1
2 2 5 1
3 3 5 2
4 4 7 ar
5 4 13 ar
6 5 7 1
7 6 8 1
8 7 8 ar
9 8 9 ar
10 9 13 ar
11 13 14 1
12 14 15 ar
13 14 22 ar
14 15 16 ar
15 10 16 ar
16 10 17 ar
17 11 17 1
18 17 22 ar
19 11 18 1
20 12 18 2
21 18 19 1
22 19 20 1
23 19 21 1
24 20 21 1
@<TRIPOS>SUBSTRUCTURE
1	RES1	1	GROUP	1 ****	RES
