# created with PyMOL 2.5.2
@<TRIPOS>MOLECULE
GSK_4PTC_TargetProtein
22 24 1                 
SMALL
USER_CHARGES
@<TRIPOS>ATOM
1	  C1	-8.178	-4.784	-31.994	C.3	1	RES1	0.000	
2	  N1	-7.294	-3.797	-32.544	N.pl3	1	RES1	0.000	
3	  O1	-6.872	-4.930	-34.472	O.2	1	RES1	0.000	
4	  S1	-5.208	-2.747	-35.768	S.2	1	RES1	0.000	
5	  C2	-6.686	-3.943	-33.777	C.2	1	RES1	0.000	
6	  O2	-5.666	-1.545	-32.158	O.3	1	RES1	0.000	
7	  C3	-5.819	-2.842	-34.166	C.2	1	RES1	0.000	
8	  C4	-5.374	-1.730	-33.469	C.2	1	RES1	0.000	
9	  N4	-4.538	-0.869	-34.140	N.2	1	RES1	0.000	
10	  N5	-1.872	0.755	-38.240	N.2	1	RES1	0.000	
11	  N6	-1.549	2.567	-36.894	N.pl3	1	RES1	0.000	
12	  O8	-2.765	3.533	-35.158	O.2	1	RES1	0.000	
13	 C26	-4.404	-1.273	-35.394	C.2	1	RES1	0.000	
14	 C27	-3.553	-0.545	-36.369	C.2	1	RES1	0.000	
15	 C28	-3.271	-1.136	-37.603	C.2	1	RES1	0.000	
16	 C29	-2.452	-0.436	-38.499	C.2	1	RES1	0.000	
17	 C30	-2.154	1.334	-37.053	C.2	1	RES1	0.000	
18	 C31	-1.879	3.579	-35.967	C.2	1	RES1	0.000	
19	 C32	-1.008	4.787	-36.019	C.3	1	RES1	0.000	
20	 C33	-1.133	5.936	-35.033	C.3	1	RES1	0.000	
21	 C34	-1.484	6.155	-36.479	C.3	1	RES1	0.000	
22	 C35	-2.947	0.712	-36.101	C.2	1	RES1	0.000	
@<TRIPOS>BOND
1 1 2 1
2 2 5 1
3 3 5 2
4 4 7 ar
5 4 13 ar
6 5 7 1
7 6 8 1
8 7 8 ar
9 8 9 ar
10 9 13 ar
11 13 14 1
12 14 15 ar
13 14 22 ar
14 15 16 ar
15 10 16 ar
16 10 17 ar
17 11 17 1
18 17 22 ar
19 11 18 1
20 12 18 2
21 18 19 1
22 19 20 1
23 19 21 1
24 20 21 1
@<TRIPOS>SUBSTRUCTURE
1	RES1	1	GROUP	1 ****	RES
