# created with PyMOL 2.5.2
@<TRIPOS>MOLECULE
GSK_4PTC_TargetProtein
22 24 1                 
SMALL
USER_CHARGES
@<TRIPOS>ATOM
1	  C1	-8.167	-4.811	-32.005	C.3	1	RES1	0.000	
2	  N1	-7.304	-3.809	-32.551	N.pl3	1	RES1	0.000	
3	  O1	-6.970	-4.867	-34.529	O.2	1	RES1	0.000	
4	  S1	-5.205	-2.736	-35.769	S.2	1	RES1	0.000	
5	  C2	-6.722	-3.917	-33.802	C.2	1	RES1	0.000	
6	  O2	-5.644	-1.581	-32.158	O.3	1	RES1	0.000	
7	  C3	-5.841	-2.837	-34.183	C.2	1	RES1	0.000	
8	  C4	-5.316	-1.759	-33.430	C.2	1	RES1	0.000	
9	  N4	-4.499	-0.932	-34.098	N.2	1	RES1	0.000	
10	  N5	-1.922	0.755	-38.273	N.2	1	RES1	0.000	
11	  N6	-1.559	2.587	-36.907	N.pl3	1	RES1	0.000	
12	  O8	-2.731	3.564	-35.142	O.2	1	RES1	0.000	
13	 C28	-4.339	-1.289	-35.357	C.2	1	RES1	0.000	
14	 C29	-3.508	-0.567	-36.323	C.2	1	RES1	0.000	
15	 C30	-3.254	-1.155	-37.581	C.2	1	RES1	0.000	
16	 C31	-2.453	-0.435	-38.498	C.2	1	RES1	0.000	
17	 C32	-2.167	1.325	-37.055	C.2	1	RES1	0.000	
18	 C33	-1.835	3.594	-35.979	C.2	1	RES1	0.000	
19	 C34	-1.022	4.807	-36.066	C.3	1	RES1	0.000	
20	 C35	-1.119	5.942	-35.075	C.3	1	RES1	0.000	
21	 C36	-1.584	6.162	-36.450	C.3	1	RES1	0.000	
22	 C37	-2.934	0.711	-36.081	C.2	1	RES1	0.000	
@<TRIPOS>BOND
1 1 2 1
2 2 5 1
3 3 5 2
4 4 7 ar
5 4 13 ar
6 5 7 1
7 6 8 1
8 7 8 ar
9 8 9 ar
10 9 13 ar
11 13 14 1
12 14 15 ar
13 14 22 ar
14 15 16 ar
15 10 16 ar
16 10 17 ar
17 11 17 1
18 17 22 ar
19 11 18 1
20 12 18 2
21 18 19 1
22 19 20 1
23 19 21 1
24 20 21 1
@<TRIPOS>SUBSTRUCTURE
1	RES1	1	GROUP	1 ****	RES
