# created with PyMOL 2.5.2
@<TRIPOS>MOLECULE
GSK_4PTC_TargetProtein
22 24 1                 
SMALL
USER_CHARGES
@<TRIPOS>ATOM
1	  C1	-8.173	-4.926	-32.092	C.3	1	RES1	0.000	
2	  N1	-7.288	-3.905	-32.594	N.pl3	1	RES1	0.000	
3	  O1	-6.924	-4.922	-34.591	O.2	1	RES1	0.000	
4	  S1	-5.200	-2.716	-35.760	S.2	1	RES1	0.000	
5	  C2	-6.687	-3.972	-33.835	C.2	1	RES1	0.000	
6	  O2	-5.687	-1.643	-32.128	O.3	1	RES1	0.000	
7	  C3	-5.852	-2.860	-34.166	C.2	1	RES1	0.000	
8	  C4	-5.364	-1.781	-33.436	C.2	1	RES1	0.000	
9	  N4	-4.573	-0.897	-34.082	N.2	1	RES1	0.000	
10	  N5	-1.937	0.738	-38.238	N.2	1	RES1	0.000	
11	  N6	-1.533	2.599	-36.911	N.pl3	1	RES1	0.000	
12	  O8	-2.636	3.561	-35.114	O.2	1	RES1	0.000	
13	 C30	-4.394	-1.241	-35.307	C.2	1	RES1	0.000	
14	 C31	-3.550	-0.504	-36.288	C.2	1	RES1	0.000	
15	 C32	-3.278	-1.118	-37.512	C.2	1	RES1	0.000	
16	 C33	-2.476	-0.466	-38.448	C.2	1	RES1	0.000	
17	 C34	-2.181	1.335	-37.042	C.2	1	RES1	0.000	
18	 C35	-1.799	3.616	-36.010	C.2	1	RES1	0.000	
19	 C36	-0.971	4.839	-36.127	C.3	1	RES1	0.000	
20	 C37	-1.082	5.982	-35.126	C.3	1	RES1	0.000	
21	 C38	-1.552	6.172	-36.539	C.3	1	RES1	0.000	
22	 C39	-2.965	0.748	-36.047	C.2	1	RES1	0.000	
@<TRIPOS>BOND
1 1 2 1
2 2 5 1
3 3 5 2
4 4 7 ar
5 4 13 ar
6 5 7 1
7 6 8 1
8 7 8 ar
9 8 9 ar
10 9 13 ar
11 13 14 1
12 14 15 ar
13 14 22 ar
14 15 16 ar
15 10 16 ar
16 10 17 ar
17 11 17 1
18 17 22 ar
19 11 18 1
20 12 18 2
21 18 19 1
22 19 20 1
23 19 21 1
24 20 21 1
@<TRIPOS>SUBSTRUCTURE
1	RES1	1	GROUP	1 ****	RES
