# created with PyMOL 2.5.2
@<TRIPOS>MOLECULE
GSK_4PTC_TargetProtein
22 24 1                 
SMALL
USER_CHARGES
@<TRIPOS>ATOM
1	  C1	-8.017	-4.637	-31.873	C.3	1	RES1	0.000	
2	  N1	-7.163	-3.648	-32.437	N.pl3	1	RES1	0.000	
3	  O1	-6.870	-4.757	-34.409	O.2	1	RES1	0.000	
4	  S1	-5.125	-2.684	-35.742	S.2	1	RES1	0.000	
5	  C2	-6.608	-3.818	-33.693	C.2	1	RES1	0.000	
6	  O2	-5.580	-1.343	-32.183	O.3	1	RES1	0.000	
7	  C3	-5.761	-2.712	-34.132	C.2	1	RES1	0.000	
8	  C4	-5.263	-1.599	-33.453	C.2	1	RES1	0.000	
9	  N4	-4.466	-0.750	-34.177	N.2	1	RES1	0.000	
10	  N5	-1.875	0.648	-38.447	N.2	1	RES1	0.000	
11	  N6	-1.674	2.643	-37.122	N.pl3	1	RES1	0.000	
12	 O10	-3.074	3.363	-35.407	O.2	1	RES1	0.000	
13	 C24	-4.283	-1.188	-35.403	C.2	1	RES1	0.000	
14	 C25	-3.458	-0.515	-36.421	C.2	1	RES1	0.000	
15	 C26	-3.173	-1.227	-37.608	C.2	1	RES1	0.000	
16	 C27	-2.371	-0.612	-38.548	C.2	1	RES1	0.000	
17	 C28	-2.172	1.320	-37.311	C.2	1	RES1	0.000	
18	 C29	-2.165	3.541	-36.190	C.2	1	RES1	0.000	
19	 C30	-1.483	4.863	-36.160	C.3	1	RES1	0.000	
20	 C31	-0.544	5.280	-35.012	C.3	1	RES1	0.000	
21	 C32	-1.870	5.984	-35.168	C.3	1	RES1	0.000	
22	 C33	-2.954	0.777	-36.279	C.2	1	RES1	0.000	
@<TRIPOS>BOND
1 1 2 1
2 2 5 1
3 3 5 2
4 4 7 ar
5 4 13 ar
6 5 7 1
7 6 8 1
8 7 8 ar
9 8 9 ar
10 12 18 2
11 9 13 ar
12 13 14 1
13 14 15 ar
14 14 22 ar
15 15 16 ar
16 10 16 ar
17 10 17 ar
18 11 17 1
19 17 22 ar
20 11 18 1
21 18 19 1
22 19 20 1
23 19 21 1
24 20 21 1
@<TRIPOS>SUBSTRUCTURE
1	RES1	1	GROUP	1 ****	RES
