# created with PyMOL 2.5.2
@<TRIPOS>MOLECULE
GSK_4PTC_TargetProtein
22 24 1                 
SMALL
USER_CHARGES
@<TRIPOS>ATOM
1	  C1	-8.065	-4.287	-31.750	C.3	1	RES1	0.000	
2	  N1	-7.169	-3.345	-32.399	N.pl3	1	RES1	0.000	
3	  O1	-6.816	-4.682	-34.222	O.2	1	RES1	0.000	
4	  S1	-5.121	-2.677	-35.759	S.2	1	RES1	0.000	
5	  C2	-6.611	-3.622	-33.616	C.2	1	RES1	0.000	
6	  O2	-5.469	-1.133	-32.260	O.3	1	RES1	0.000	
7	  C3	-5.717	-2.619	-34.110	C.2	1	RES1	0.000	
8	  C4	-5.190	-1.461	-33.528	C.2	1	RES1	0.000	
9	  N4	-4.370	-0.704	-34.299	N.2	1	RES1	0.000	
10	  N5	-1.823	0.647	-38.512	N.2	1	RES1	0.000	
11	  N6	-1.672	2.598	-37.118	N.pl3	1	RES1	0.000	
12	 O11	-3.134	3.117	-35.358	O.2	1	RES1	0.000	
13	 C26	-4.246	-1.213	-35.493	C.2	1	RES1	0.000	
14	 C27	-3.417	-0.582	-36.541	C.2	1	RES1	0.000	
15	 C28	-3.108	-1.255	-37.752	C.2	1	RES1	0.000	
16	 C29	-2.312	-0.591	-38.666	C.2	1	RES1	0.000	
17	 C30	-2.118	1.275	-37.379	C.2	1	RES1	0.000	
18	 C31	-2.219	3.416	-36.135	C.2	1	RES1	0.000	
19	 C32	-1.648	4.788	-36.002	C.3	1	RES1	0.000	
20	 C33	-0.721	5.152	-34.849	C.3	1	RES1	0.000	
21	 C34	-2.126	5.755	-34.916	C.3	1	RES1	0.000	
22	 C35	-2.920	0.698	-36.389	C.2	1	RES1	0.000	
@<TRIPOS>BOND
1 1 2 1
2 2 5 1
3 3 5 2
4 4 7 ar
5 4 13 ar
6 5 7 1
7 6 8 1
8 7 8 ar
9 8 9 ar
10 12 18 2
11 9 13 ar
12 13 14 1
13 14 15 ar
14 14 22 ar
15 15 16 ar
16 10 16 ar
17 10 17 ar
18 11 17 1
19 17 22 ar
20 11 18 1
21 18 19 1
22 19 20 1
23 19 21 1
24 20 21 1
@<TRIPOS>SUBSTRUCTURE
1	RES1	1	GROUP	1 ****	RES
