# created with PyMOL 2.5.2
@<TRIPOS>MOLECULE
BRD4_6YQN_TargetProtein
24 27 1                 
SMALL
USER_CHARGES
@<TRIPOS>ATOM
1	 CL1	25.731	17.910	-6.993	Cl	1	RES1	0.000	
2	  C1	26.034	15.088	1.272	C.3	1	RES1	0.000	
3	  N1	30.784	16.827	-0.000	N.2	1	RES1	0.000	
4	  S1	28.486	16.318	1.342	S.2	1	RES1	0.000	
5	  C2	27.232	15.491	0.539	C.2	1	RES1	0.000	
6	  N2	32.704	17.786	0.545	N.2	1	RES1	0.000	
7	  C3	27.538	15.293	-0.805	C.2	1	RES1	0.000	
8	  N3	32.926	16.963	-0.529	N.2	1	RES1	0.000	
9	  C4	26.613	14.559	-1.718	C.3	1	RES1	0.000	
10	  C5	28.794	15.888	-1.189	C.2	1	RES1	0.000	
11	  C6	29.473	16.376	-0.057	C.2	1	RES1	0.000	
12	  C7	31.451	17.673	0.865	C.2	1	RES1	0.000	
13	  C8	30.791	18.492	1.931	C.3	1	RES1	0.000	
14	  C9	31.774	16.385	-0.834	C.2	1	RES1	0.000	
15	 C10	31.574	15.326	-1.863	C.3	1	RES1	0.000	
16	 N10	30.581	15.779	-2.881	N.2	1	RES1	0.000	
17	 C11	32.824	14.945	-2.581	C.3	1	RES1	0.000	
18	 C37	29.334	16.007	-2.553	C.2	1	RES1	0.000	
19	 C38	28.418	16.478	-3.636	C.2	1	RES1	0.000	
20	 C39	27.312	17.320	-3.374	C.2	1	RES1	0.000	
21	 C40	26.501	17.728	-4.398	C.2	1	RES1	0.000	
22	 C41	26.776	17.379	-5.711	C.2	1	RES1	0.000	
23	 C42	27.856	16.549	-6.004	C.2	1	RES1	0.000	
24	 C43	28.697	16.121	-4.980	C.2	1	RES1	0.000	
@<TRIPOS>BOND
1 1 22 1
2 2 5 1
3 3 11 1
4 3 12 ar
5 3 14 ar
6 4 5 ar
7 4 11 ar
8 5 7 ar
9 6 8 ar
10 6 12 ar
11 7 9 1
12 7 10 ar
13 8 14 ar
14 10 11 ar
15 12 13 1
16 14 15 1
17 15 16 1
18 15 17 1
19 16 18 2
20 10 18 1
21 18 19 1
22 19 20 ar
23 19 24 ar
24 20 21 ar
25 21 22 ar
26 22 23 ar
27 23 24 ar
@<TRIPOS>SUBSTRUCTURE
1	RES1	1	GROUP	1 ****	RES
