# created with PyMOL 2.5.2
@<TRIPOS>MOLECULE
GSK_4PTC_TargetProtein
22 24 1                 
SMALL
USER_CHARGES
@<TRIPOS>ATOM
1	  C1	-8.273	-4.785	-32.070	C.3	1	RES1	0.000	
2	  N1	-7.327	-3.800	-32.577	N.pl3	1	RES1	0.000	
3	  O1	-6.992	-4.839	-34.547	O.2	1	RES1	0.000	
4	  S1	-5.225	-2.719	-35.785	S.2	1	RES1	0.000	
5	  C2	-6.739	-3.904	-33.834	C.2	1	RES1	0.000	
6	  O2	-5.583	-1.593	-32.137	O.3	1	RES1	0.000	
7	  C3	-5.856	-2.842	-34.183	C.2	1	RES1	0.000	
8	  C4	-5.323	-1.794	-33.426	C.2	1	RES1	0.000	
9	  N4	-4.478	-0.939	-34.079	N.2	1	RES1	0.000	
10	  N5	-1.930	0.758	-38.262	N.2	1	RES1	0.000	
11	  N6	-1.555	2.596	-36.917	N.pl3	1	RES1	0.000	
12	 O12	-2.673	3.523	-35.092	O.2	1	RES1	0.000	
13	 C28	-4.308	-1.295	-35.339	C.2	1	RES1	0.000	
14	 C29	-3.488	-0.579	-36.295	C.2	1	RES1	0.000	
15	 C30	-3.256	-1.137	-37.573	C.2	1	RES1	0.000	
16	 C31	-2.466	-0.458	-38.495	C.2	1	RES1	0.000	
17	 C32	-2.164	1.334	-37.048	C.2	1	RES1	0.000	
18	 C33	-1.846	3.576	-35.992	C.2	1	RES1	0.000	
19	 C34	-1.021	4.840	-36.092	C.3	1	RES1	0.000	
20	 C35	-1.135	5.941	-35.103	C.3	1	RES1	0.000	
21	 C36	-1.646	6.175	-36.478	C.3	1	RES1	0.000	
22	 C37	-2.918	0.720	-36.049	C.2	1	RES1	0.000	
@<TRIPOS>BOND
1 1 2 1
2 2 5 1
3 3 5 2
4 4 7 ar
5 4 13 ar
6 5 7 1
7 6 8 1
8 7 8 ar
9 8 9 ar
10 12 18 2
11 9 13 ar
12 13 14 1
13 14 15 ar
14 14 22 ar
15 15 16 ar
16 10 16 ar
17 10 17 ar
18 11 17 1
19 17 22 ar
20 11 18 1
21 18 19 1
22 19 20 1
23 19 21 1
24 20 21 1
@<TRIPOS>SUBSTRUCTURE
1	RES1	1	GROUP	1 ****	RES
