# created with PyMOL 2.5.2
@<TRIPOS>MOLECULE
GSK_4PTC_TargetProtein
22 24 1                 
SMALL
USER_CHARGES
@<TRIPOS>ATOM
1	  C1	-8.111	-4.476	-31.851	C.3	1	RES1	0.000	
2	  N1	-7.203	-3.517	-32.444	N.pl3	1	RES1	0.000	
3	  O1	-6.866	-4.732	-34.315	O.2	1	RES1	0.000	
4	  S1	-5.137	-2.672	-35.730	S.2	1	RES1	0.000	
5	  C2	-6.618	-3.732	-33.671	C.2	1	RES1	0.000	
6	  O2	-5.518	-1.272	-32.210	O.3	1	RES1	0.000	
7	  C3	-5.733	-2.677	-34.111	C.2	1	RES1	0.000	
8	  C4	-5.247	-1.561	-33.487	C.2	1	RES1	0.000	
9	  N7	-4.411	-0.743	-34.216	N.2	1	RES1	0.000	
10	  N8	-1.870	0.653	-38.469	N.2	1	RES1	0.000	
11	  O8	-3.088	3.247	-35.360	O.2	1	RES1	0.000	
12	  N9	-1.678	2.635	-37.105	N.pl3	1	RES1	0.000	
13	 C29	-4.249	-1.221	-35.462	C.2	1	RES1	0.000	
14	 C30	-3.436	-0.559	-36.469	C.2	1	RES1	0.000	
15	 C31	-3.133	-1.224	-37.663	C.2	1	RES1	0.000	
16	 C32	-2.349	-0.600	-38.624	C.2	1	RES1	0.000	
17	 C33	-2.146	1.327	-37.325	C.2	1	RES1	0.000	
18	 C34	-2.180	3.479	-36.155	C.2	1	RES1	0.000	
19	 C35	-1.543	4.858	-36.099	C.3	1	RES1	0.000	
20	 C36	-0.631	5.263	-35.000	C.3	1	RES1	0.000	
21	 C37	-1.974	5.875	-35.075	C.3	1	RES1	0.000	
22	 C38	-2.919	0.738	-36.313	C.2	1	RES1	0.000	
@<TRIPOS>BOND
1 1 2 1
2 2 5 1
3 3 5 2
4 4 7 ar
5 4 13 ar
6 5 7 1
7 6 8 1
8 7 8 ar
9 8 9 ar
10 9 13 ar
11 13 14 1
12 14 15 ar
13 14 22 ar
14 15 16 ar
15 10 16 ar
16 10 17 ar
17 12 17 1
18 17 22 ar
19 11 18 2
20 12 18 1
21 18 19 1
22 19 20 1
23 19 21 1
24 20 21 1
@<TRIPOS>SUBSTRUCTURE
1	RES1	1	GROUP	1 ****	RES
