# created with PyMOL 2.5.2
@<TRIPOS>MOLECULE
GSK_4PTC_TargetProtein
22 24 1                 
SMALL
USER_CHARGES
@<TRIPOS>ATOM
1	  C1	-8.016	-4.667	-31.852	C.3	1	RES1	0.000	
2	  N1	-7.154	-3.640	-32.459	N.pl3	1	RES1	0.000	
3	  O1	-6.808	-4.814	-34.373	O.2	1	RES1	0.000	
4	  S1	-5.104	-2.679	-35.725	S.2	1	RES1	0.000	
5	  C2	-6.579	-3.819	-33.700	C.2	1	RES1	0.000	
6	  O2	-5.646	-1.318	-32.188	O.3	1	RES1	0.000	
7	  C3	-5.747	-2.708	-34.142	C.2	1	RES1	0.000	
8	  C4	-5.287	-1.566	-33.477	C.2	1	RES1	0.000	
9	  N7	-4.482	-0.740	-34.188	N.2	1	RES1	0.000	
10	  N8	-1.902	0.668	-38.428	N.2	1	RES1	0.000	
11	  N9	-1.686	2.633	-37.115	N.pl3	1	RES1	0.000	
12	 O10	-3.070	3.382	-35.431	O.2	1	RES1	0.000	
13	 C27	-4.296	-1.194	-35.392	C.2	1	RES1	0.000	
14	 C28	-3.474	-0.518	-36.415	C.2	1	RES1	0.000	
15	 C29	-3.156	-1.231	-37.593	C.2	1	RES1	0.000	
16	 C30	-2.409	-0.588	-38.562	C.2	1	RES1	0.000	
17	 C31	-2.188	1.328	-37.301	C.2	1	RES1	0.000	
18	 C32	-2.146	3.542	-36.198	C.2	1	RES1	0.000	
19	 C33	-1.450	4.877	-36.150	C.3	1	RES1	0.000	
20	 C34	-0.540	5.247	-35.001	C.3	1	RES1	0.000	
21	 C35	-1.843	5.939	-35.167	C.3	1	RES1	0.000	
22	 C36	-2.963	0.765	-36.293	C.2	1	RES1	0.000	
@<TRIPOS>BOND
1 1 2 1
2 2 5 1
3 3 5 2
4 4 7 ar
5 4 13 ar
6 5 7 1
7 6 8 1
8 7 8 ar
9 8 9 ar
10 12 18 2
11 9 13 ar
12 13 14 1
13 14 15 ar
14 14 22 ar
15 15 16 ar
16 10 16 ar
17 10 17 ar
18 11 17 1
19 17 22 ar
20 11 18 1
21 18 19 1
22 19 20 1
23 19 21 1
24 20 21 1
@<TRIPOS>SUBSTRUCTURE
1	RES1	1	GROUP	1 ****	RES
