# created with PyMOL 2.5.2
@<TRIPOS>MOLECULE
GSK_4PTC_TargetProtein
22 24 1                 
SMALL
USER_CHARGES
@<TRIPOS>ATOM
1	  C1	-8.281	-4.743	-32.062	C.3	1	RES1	0.000	
2	  N1	-7.348	-3.783	-32.588	N.pl3	1	RES1	0.000	
3	  O1	-6.935	-4.868	-34.537	O.2	1	RES1	0.000	
4	  S1	-5.209	-2.697	-35.778	S.2	1	RES1	0.000	
5	  C2	-6.742	-3.912	-33.822	C.2	1	RES1	0.000	
6	  O2	-5.608	-1.594	-32.144	O.3	1	RES1	0.000	
7	  C3	-5.830	-2.843	-34.156	C.2	1	RES1	0.000	
8	  C4	-5.336	-1.790	-33.415	C.2	1	RES1	0.000	
9	  N7	-4.494	-0.905	-34.090	N.2	1	RES1	0.000	
10	  N8	-1.912	0.753	-38.251	N.2	1	RES1	0.000	
11	  N9	-1.544	2.578	-36.922	N.pl3	1	RES1	0.000	
12	 O11	-2.685	3.510	-35.089	O.2	1	RES1	0.000	
13	 C29	-4.325	-1.273	-35.349	C.2	1	RES1	0.000	
14	 C30	-3.499	-0.557	-36.308	C.2	1	RES1	0.000	
15	 C31	-3.257	-1.123	-37.562	C.2	1	RES1	0.000	
16	 C32	-2.483	-0.448	-38.501	C.2	1	RES1	0.000	
17	 C33	-2.158	1.335	-37.087	C.2	1	RES1	0.000	
18	 C34	-1.853	3.562	-36.002	C.2	1	RES1	0.000	
19	 C35	-1.026	4.809	-36.095	C.3	1	RES1	0.000	
20	 C36	-1.212	5.916	-35.045	C.3	1	RES1	0.000	
21	 C37	-1.554	6.179	-36.495	C.3	1	RES1	0.000	
22	 C38	-2.920	0.717	-36.066	C.2	1	RES1	0.000	
@<TRIPOS>BOND
1 1 2 1
2 2 5 1
3 3 5 2
4 4 7 ar
5 4 13 ar
6 5 7 1
7 6 8 1
8 7 8 ar
9 8 9 ar
10 12 18 2
11 9 13 ar
12 13 14 1
13 14 15 ar
14 14 22 ar
15 15 16 ar
16 10 16 ar
17 10 17 ar
18 11 17 1
19 17 22 ar
20 11 18 1
21 18 19 1
22 19 20 1
23 19 21 1
24 20 21 1
@<TRIPOS>SUBSTRUCTURE
1	RES1	1	GROUP	1 ****	RES
