# created with PyMOL 2.5.2
@<TRIPOS>MOLECULE
ALK_4MKC_TargetProtein
38 41 1                 
SMALL
USER_CHARGES
@<TRIPOS>ATOM
1	 CL1	-20.935	14.921	-10.650	Cl	1	RES1	0.000	
2	  C1	-20.269	6.992	-7.539	C.3	1	RES1	0.000	
3	  N1	-23.776	10.057	-9.063	N.pl3	1	RES1	0.000	
4	  O1	-18.053	14.665	-8.954	O.2	1	RES1	0.000	
5	  S1	-17.038	13.761	-8.408	S.O2	1	RES1	0.000	
6	  C2	-21.739	7.351	-7.505	C.2	1	RES1	0.000	
7	  N2	-23.582	11.967	-10.396	N.2	1	RES1	0.000	
8	  O2	-15.904	14.276	-7.672	O.2	1	RES1	0.000	
9	  C3	-22.147	8.502	-8.209	C.2	1	RES1	0.000	
10	  N3	-20.046	13.000	-8.483	N.pl3	1	RES1	0.000	
11	  O3	-25.749	8.645	-7.547	O.3	1	RES1	0.000	
12	  C4	-23.452	8.925	-8.266	C.2	1	RES1	0.000	
13	  N4	-21.905	11.511	-8.773	N.2	1	RES1	0.000	
14	  C5	-23.059	11.212	-9.428	C.2	1	RES1	0.000	
15	  N5	-21.245	3.780	-3.860	N.3	1	RES1	0.000	
16	  C6	-22.910	13.056	-10.746	C.2	1	RES1	0.000	
17	  C7	-21.730	13.463	-10.136	C.2	1	RES1	0.000	
18	  C8	-21.223	12.608	-9.126	C.2	1	RES1	0.000	
19	  C9	-19.279	12.351	-7.422	C.2	1	RES1	0.000	
20	 C10	-19.859	11.556	-6.447	C.2	1	RES1	0.000	
21	 C11	-19.116	10.928	-5.453	C.2	1	RES1	0.000	
22	 C12	-17.739	11.173	-5.358	C.2	1	RES1	0.000	
23	 C13	-17.153	12.007	-6.255	C.2	1	RES1	0.000	
24	 C14	-17.881	12.623	-7.294	C.2	1	RES1	0.000	
25	 C15	-16.412	12.720	-9.735	C.3	1	RES1	0.000	
26	 C16	-17.558	11.936	-10.377	C.3	1	RES1	0.000	
27	 C17	-15.298	11.755	-9.277	C.3	1	RES1	0.000	
28	 C18	-24.436	8.184	-7.555	C.2	1	RES1	0.000	
29	 C19	-26.787	7.826	-7.002	C.3	1	RES1	0.000	
30	 C20	-27.093	6.673	-7.980	C.3	1	RES1	0.000	
31	 C21	-28.019	8.688	-6.853	C.3	1	RES1	0.000	
32	 C22	-24.037	7.000	-6.878	C.2	1	RES1	0.000	
33	 C23	-22.692	6.571	-6.843	C.2	1	RES1	0.000	
34	 C24	-22.351	5.280	-6.088	C.3	1	RES1	0.000	
35	 C25	-23.080	5.161	-4.742	C.3	1	RES1	0.000	
36	 C26	-22.707	3.877	-4.037	C.3	1	RES1	0.000	
37	 C47	-20.534	3.814	-5.144	C.3	1	RES1	0.000	
38	 C48	-20.841	5.109	-5.901	C.3	1	RES1	0.000	
@<TRIPOS>BOND
1 1 17 1
2 2 6 1
3 3 12 1
4 3 14 1
5 4 5 2
6 5 8 2
7 5 24 1
8 5 25 1
9 6 9 ar
10 6 33 ar
11 7 14 ar
12 7 16 ar
13 9 12 ar
14 10 18 1
15 10 19 1
16 13 14 ar
17 13 18 ar
18 16 17 ar
19 17 18 ar
20 19 20 ar
21 20 21 ar
22 21 22 ar
23 22 23 ar
24 23 24 ar
25 19 24 ar
26 25 26 1
27 25 27 1
28 11 28 1
29 12 28 ar
30 28 32 ar
31 11 29 1
32 29 30 1
33 29 31 1
34 32 33 ar
35 33 34 1
36 34 35 1
37 34 38 1
38 35 36 1
39 15 36 1
40 15 37 1
41 37 38 1
@<TRIPOS>SUBSTRUCTURE
1	RES1	1	GROUP	1 ****	RES
