# created with PyMOL 2.5.2
@<TRIPOS>MOLECULE
ALK_4MKC_TargetProtein
38 41 1                 
SMALL
USER_CHARGES
@<TRIPOS>ATOM
1	 CL1	-21.006	15.068	-10.482	Cl	1	RES1	0.000	
2	  C1	-20.185	7.076	-7.481	C.3	1	RES1	0.000	
3	  N1	-23.770	10.078	-9.126	N.pl3	1	RES1	0.000	
4	  O1	-15.880	14.122	-7.594	O.2	1	RES1	0.000	
5	  S1	-17.035	13.655	-8.328	S.O2	1	RES1	0.000	
6	  C2	-21.662	7.409	-7.545	C.2	1	RES1	0.000	
7	  N2	-23.668	12.104	-10.397	N.2	1	RES1	0.000	
8	  O2	-18.001	14.589	-8.858	O.2	1	RES1	0.000	
9	  C3	-22.027	8.522	-8.293	C.2	1	RES1	0.000	
10	  N3	-20.104	12.989	-8.430	N.pl3	1	RES1	0.000	
11	  O3	-25.678	8.598	-7.950	O.3	1	RES1	0.000	
12	  C4	-23.385	8.927	-8.429	C.2	1	RES1	0.000	
13	  N4	-22.000	11.548	-8.833	N.2	1	RES1	0.000	
14	  C5	-23.147	11.307	-9.467	C.2	1	RES1	0.000	
15	  N5	-21.280	3.929	-3.785	N.3	1	RES1	0.000	
16	  C6	-22.984	13.251	-10.669	C.2	1	RES1	0.000	
17	  C7	-21.809	13.586	-10.052	C.2	1	RES1	0.000	
18	  C8	-21.321	12.678	-9.107	C.2	1	RES1	0.000	
19	  C9	-19.360	12.268	-7.439	C.2	1	RES1	0.000	
20	 C10	-19.963	11.410	-6.542	C.2	1	RES1	0.000	
21	 C11	-19.247	10.713	-5.581	C.2	1	RES1	0.000	
22	 C12	-17.878	10.916	-5.449	C.2	1	RES1	0.000	
23	 C13	-17.228	11.824	-6.289	C.2	1	RES1	0.000	
24	 C14	-17.972	12.509	-7.266	C.2	1	RES1	0.000	
25	 C15	-16.477	12.611	-9.699	C.3	1	RES1	0.000	
26	 C16	-17.637	11.871	-10.363	C.3	1	RES1	0.000	
27	 C17	-15.449	11.594	-9.212	C.3	1	RES1	0.000	
28	 C18	-24.351	8.146	-7.781	C.2	1	RES1	0.000	
29	 C19	-26.758	7.716	-7.559	C.3	1	RES1	0.000	
30	 C20	-28.035	8.519	-7.340	C.3	1	RES1	0.000	
31	 C21	-26.313	7.072	-6.237	C.3	1	RES1	0.000	
32	 C22	-23.994	6.993	-7.056	C.2	1	RES1	0.000	
33	 C23	-22.624	6.602	-6.915	C.2	1	RES1	0.000	
34	 C24	-22.296	5.346	-6.118	C.3	1	RES1	0.000	
35	 C25	-23.092	5.235	-4.825	C.3	1	RES1	0.000	
36	 C26	-22.704	3.974	-4.030	C.3	1	RES1	0.000	
37	 C49	-20.505	3.949	-5.018	C.3	1	RES1	0.000	
38	 C50	-20.788	5.215	-5.851	C.3	1	RES1	0.000	
@<TRIPOS>BOND
1 1 17 1
2 2 6 1
3 3 12 1
4 3 14 1
5 4 5 2
6 5 8 2
7 5 24 1
8 5 25 1
9 6 9 ar
10 6 33 ar
11 7 14 ar
12 7 16 ar
13 9 12 ar
14 10 18 1
15 10 19 1
16 13 14 ar
17 13 18 ar
18 16 17 ar
19 17 18 ar
20 19 20 ar
21 20 21 ar
22 21 22 ar
23 22 23 ar
24 23 24 ar
25 19 24 ar
26 25 26 1
27 25 27 1
28 11 28 1
29 12 28 ar
30 28 32 ar
31 11 29 1
32 29 30 1
33 29 31 1
34 32 33 ar
35 33 34 1
36 34 35 1
37 34 38 1
38 35 36 1
39 15 36 1
40 15 37 1
41 37 38 1
@<TRIPOS>SUBSTRUCTURE
1	RES1	1	GROUP	1 ****	RES
