# created with PyMOL 2.5.2
@<TRIPOS>MOLECULE
ALK_4MKC_TargetProtein
38 41 1                 
SMALL
USER_CHARGES
@<TRIPOS>ATOM
1	 CL1	-21.021	15.111	-10.428	Cl	1	RES1	0.000	
2	  C1	-20.210	6.987	-7.603	C.3	1	RES1	0.000	
3	  N1	-23.757	10.100	-9.135	N.pl3	1	RES1	0.000	
4	  O1	-17.942	14.566	-8.883	O.2	1	RES1	0.000	
5	  S1	-17.029	13.577	-8.330	S.O2	1	RES1	0.000	
6	  C2	-21.635	7.382	-7.628	C.2	1	RES1	0.000	
7	  N2	-23.629	12.137	-10.417	N.2	1	RES1	0.000	
8	  O2	-15.849	14.000	-7.592	O.2	1	RES1	0.000	
9	  C3	-22.035	8.520	-8.349	C.2	1	RES1	0.000	
10	  N3	-20.146	13.035	-8.382	N.pl3	1	RES1	0.000	
11	  O3	-25.656	8.616	-7.793	O.3	1	RES1	0.000	
12	  C4	-23.349	8.957	-8.425	C.2	1	RES1	0.000	
13	  N4	-21.979	11.585	-8.802	N.2	1	RES1	0.000	
14	  C5	-23.143	11.315	-9.469	C.2	1	RES1	0.000	
15	  N5	-21.191	4.115	-3.683	N.3	1	RES1	0.000	
16	  C6	-22.994	13.276	-10.679	C.2	1	RES1	0.000	
17	  C7	-21.818	13.625	-10.010	C.2	1	RES1	0.000	
18	  C8	-21.330	12.734	-9.051	C.2	1	RES1	0.000	
19	  C9	-19.372	12.337	-7.377	C.2	1	RES1	0.000	
20	 C10	-19.998	11.399	-6.517	C.2	1	RES1	0.000	
21	 C11	-19.260	10.712	-5.562	C.2	1	RES1	0.000	
22	 C12	-17.889	10.877	-5.468	C.2	1	RES1	0.000	
23	 C13	-17.239	11.761	-6.305	C.2	1	RES1	0.000	
24	 C14	-17.991	12.451	-7.283	C.2	1	RES1	0.000	
25	 C15	-16.471	12.534	-9.686	C.3	1	RES1	0.000	
26	 C16	-17.667	11.826	-10.336	C.3	1	RES1	0.000	
27	 C17	-15.447	11.468	-9.261	C.3	1	RES1	0.000	
28	 C18	-24.310	8.187	-7.739	C.2	1	RES1	0.000	
29	 C19	-26.636	7.742	-7.160	C.3	1	RES1	0.000	
30	 C20	-26.931	6.477	-7.950	C.3	1	RES1	0.000	
31	 C21	-27.921	8.452	-6.707	C.3	1	RES1	0.000	
32	 C22	-23.955	7.082	-6.995	C.2	1	RES1	0.000	
33	 C23	-22.622	6.639	-6.902	C.2	1	RES1	0.000	
34	 C24	-22.280	5.402	-6.066	C.3	1	RES1	0.000	
35	 C25	-23.030	5.408	-4.715	C.3	1	RES1	0.000	
36	 C26	-22.628	4.175	-3.912	C.3	1	RES1	0.000	
37	 C51	-20.458	4.051	-4.952	C.3	1	RES1	0.000	
38	 C52	-20.767	5.290	-5.830	C.3	1	RES1	0.000	
@<TRIPOS>BOND
1 1 17 1
2 2 6 1
3 3 12 1
4 3 14 1
5 4 5 2
6 5 8 2
7 5 24 1
8 5 25 1
9 6 9 ar
10 6 33 ar
11 7 14 ar
12 7 16 ar
13 9 12 ar
14 10 18 1
15 10 19 1
16 13 14 ar
17 13 18 ar
18 15 37 1
19 16 17 ar
20 17 18 ar
21 19 20 ar
22 20 21 ar
23 21 22 ar
24 22 23 ar
25 23 24 ar
26 19 24 ar
27 25 26 1
28 25 27 1
29 11 28 1
30 12 28 ar
31 28 32 ar
32 11 29 1
33 29 30 1
34 29 31 1
35 32 33 ar
36 33 34 1
37 34 35 1
38 34 38 1
39 35 36 1
40 15 36 1
41 37 38 1
@<TRIPOS>SUBSTRUCTURE
1	RES1	1	GROUP	1 ****	RES
