# created with PyMOL 2.5.2
@<TRIPOS>MOLECULE
ALK_4MKC_TargetProtein
38 41 1                 
SMALL
USER_CHARGES
@<TRIPOS>ATOM
1	 CL1	-20.920	15.002	-10.658	Cl	1	RES1	0.000	
2	  C1	-20.337	6.984	-7.589	C.3	1	RES1	0.000	
3	  N1	-23.782	10.122	-9.069	N.pl3	1	RES1	0.000	
4	  O1	-17.871	14.684	-8.906	O.2	1	RES1	0.000	
5	  S1	-16.948	13.723	-8.386	S.O2	1	RES1	0.000	
6	  C2	-21.774	7.386	-7.565	C.2	1	RES1	0.000	
7	  N2	-23.551	12.010	-10.423	N.2	1	RES1	0.000	
8	  O2	-15.749	14.140	-7.702	O.2	1	RES1	0.000	
9	  C3	-22.186	8.536	-8.255	C.2	1	RES1	0.000	
10	  N3	-20.026	13.065	-8.467	N.pl3	1	RES1	0.000	
11	  O3	-25.804	8.603	-7.515	O.3	1	RES1	0.000	
12	  C4	-23.515	8.977	-8.275	C.2	1	RES1	0.000	
13	  N4	-21.909	11.611	-8.766	N.2	1	RES1	0.000	
14	  C5	-23.024	11.277	-9.414	C.2	1	RES1	0.000	
15	  N5	-21.243	3.881	-3.859	N.3	1	RES1	0.000	
16	  C6	-22.890	13.123	-10.770	C.2	1	RES1	0.000	
17	  C7	-21.694	13.536	-10.147	C.2	1	RES1	0.000	
18	  C8	-21.243	12.701	-9.128	C.2	1	RES1	0.000	
19	  C9	-19.302	12.426	-7.443	C.2	1	RES1	0.000	
20	 C10	-19.895	11.569	-6.498	C.2	1	RES1	0.000	
21	 C11	-19.177	10.915	-5.495	C.2	1	RES1	0.000	
22	 C12	-17.813	11.133	-5.399	C.2	1	RES1	0.000	
23	 C13	-17.164	11.971	-6.273	C.2	1	RES1	0.000	
24	 C14	-17.890	12.634	-7.264	C.2	1	RES1	0.000	
25	 C15	-16.457	12.609	-9.704	C.3	1	RES1	0.000	
26	 C16	-17.613	11.851	-10.355	C.3	1	RES1	0.000	
27	 C17	-15.404	11.591	-9.166	C.3	1	RES1	0.000	
28	 C18	-24.470	8.229	-7.566	C.2	1	RES1	0.000	
29	 C19	-26.667	7.613	-6.938	C.3	1	RES1	0.000	
30	 C20	-26.833	6.485	-7.983	C.3	1	RES1	0.000	
31	 C21	-28.014	8.252	-6.636	C.3	1	RES1	0.000	
32	 C22	-24.098	7.060	-6.900	C.2	1	RES1	0.000	
33	 C23	-22.756	6.607	-6.880	C.2	1	RES1	0.000	
34	 C24	-22.396	5.330	-6.135	C.3	1	RES1	0.000	
35	 C25	-23.111	5.224	-4.772	C.3	1	RES1	0.000	
36	 C26	-22.691	3.973	-3.997	C.3	1	RES1	0.000	
37	 C47	-20.520	3.915	-5.134	C.3	1	RES1	0.000	
38	 C48	-20.866	5.162	-5.957	C.3	1	RES1	0.000	
@<TRIPOS>BOND
1 1 17 1
2 2 6 1
3 3 12 1
4 3 14 1
5 4 5 2
6 5 8 2
7 5 24 1
8 5 25 1
9 6 9 ar
10 6 33 ar
11 7 14 ar
12 7 16 ar
13 9 12 ar
14 10 18 1
15 10 19 1
16 13 14 ar
17 13 18 ar
18 16 17 ar
19 17 18 ar
20 19 20 ar
21 20 21 ar
22 21 22 ar
23 22 23 ar
24 23 24 ar
25 19 24 ar
26 25 26 1
27 25 27 1
28 11 28 1
29 12 28 ar
30 28 32 ar
31 11 29 1
32 29 30 1
33 29 31 1
34 32 33 ar
35 33 34 1
36 34 35 1
37 34 38 1
38 35 36 1
39 15 36 1
40 15 37 1
41 37 38 1
@<TRIPOS>SUBSTRUCTURE
1	RES1	1	GROUP	1 ****	RES
