# created with PyMOL 2.5.2
@<TRIPOS>MOLECULE
ALK_4MKC_TargetProtein
38 41 1                 
SMALL
USER_CHARGES
@<TRIPOS>ATOM
1	 CL1	-21.077	14.994	-10.595	Cl	1	RES1	0.000	
2	  C1	-20.170	6.825	-7.602	C.3	1	RES1	0.000	
3	  N1	-23.701	10.001	-8.974	N.pl3	1	RES1	0.000	
4	  O1	-17.990	14.794	-8.988	O.2	1	RES1	0.000	
5	  S1	-17.022	13.855	-8.511	S.O2	1	RES1	0.000	
6	  C2	-21.637	7.202	-7.534	C.2	1	RES1	0.000	
7	  N2	-23.617	11.936	-10.274	N.2	1	RES1	0.000	
8	  O2	-15.828	14.346	-7.810	O.2	1	RES1	0.000	
9	  C3	-22.029	8.341	-8.221	C.2	1	RES1	0.000	
10	  N3	-20.032	13.102	-8.435	N.pl3	1	RES1	0.000	
11	  O3	-25.600	8.638	-7.648	O.3	1	RES1	0.000	
12	  C4	-23.328	8.833	-8.256	C.2	1	RES1	0.000	
13	  N4	-21.865	11.549	-8.720	N.2	1	RES1	0.000	
14	  C5	-23.017	11.192	-9.322	C.2	1	RES1	0.000	
15	  N5	-21.545	3.597	-3.737	N.3	1	RES1	0.000	
16	  C6	-22.990	13.082	-10.628	C.2	1	RES1	0.000	
17	  C7	-21.818	13.522	-10.078	C.2	1	RES1	0.000	
18	  C8	-21.254	12.707	-9.087	C.2	1	RES1	0.000	
19	  C9	-19.257	12.489	-7.417	C.2	1	RES1	0.000	
20	 C10	-19.838	11.675	-6.403	C.2	1	RES1	0.000	
21	 C11	-19.042	11.074	-5.423	C.2	1	RES1	0.000	
22	 C12	-17.676	11.294	-5.398	C.2	1	RES1	0.000	
23	 C13	-17.069	12.110	-6.361	C.2	1	RES1	0.000	
24	 C14	-17.864	12.725	-7.325	C.2	1	RES1	0.000	
25	 C15	-16.501	12.800	-9.832	C.3	1	RES1	0.000	
26	 C16	-17.692	12.020	-10.398	C.3	1	RES1	0.000	
27	 C17	-15.378	11.823	-9.398	C.3	1	RES1	0.000	
28	 C18	-24.295	8.130	-7.567	C.2	1	RES1	0.000	
29	 C19	-26.705	7.879	-7.117	C.3	1	RES1	0.000	
30	 C20	-27.017	6.693	-8.046	C.3	1	RES1	0.000	
31	 C21	-27.894	8.814	-7.069	C.3	1	RES1	0.000	
32	 C22	-23.941	6.950	-6.868	C.2	1	RES1	0.000	
33	 C23	-22.617	6.457	-6.826	C.2	1	RES1	0.000	
34	 C24	-22.402	5.183	-6.034	C.3	1	RES1	0.000	
35	 C25	-23.172	5.201	-4.689	C.3	1	RES1	0.000	
36	 C26	-22.983	3.891	-3.927	C.3	1	RES1	0.000	
37	 C49	-20.869	3.453	-5.050	C.3	1	RES1	0.000	
38	 C50	-20.936	4.761	-5.847	C.3	1	RES1	0.000	
@<TRIPOS>BOND
1 1 17 1
2 2 6 1
3 3 12 1
4 3 14 1
5 4 5 2
6 5 8 2
7 5 24 1
8 5 25 1
9 6 9 ar
10 6 33 ar
11 7 14 ar
12 7 16 ar
13 9 12 ar
14 10 18 1
15 10 19 1
16 13 14 ar
17 13 18 ar
18 16 17 ar
19 17 18 ar
20 19 20 ar
21 20 21 ar
22 21 22 ar
23 22 23 ar
24 23 24 ar
25 19 24 ar
26 25 26 1
27 25 27 1
28 11 28 1
29 12 28 ar
30 28 32 ar
31 11 29 1
32 29 30 1
33 29 31 1
34 32 33 ar
35 33 34 1
36 34 35 1
37 34 38 1
38 35 36 1
39 15 36 1
40 15 37 1
41 37 38 1
@<TRIPOS>SUBSTRUCTURE
1	RES1	1	GROUP	1 ****	RES
