# created with PyMOL 2.5.2
@<TRIPOS>MOLECULE
ALK_4MKC_TargetProtein
38 41 1                 
SMALL
USER_CHARGES
@<TRIPOS>ATOM
1	 CL1	-21.232	15.025	-10.645	Cl	1	RES1	0.000	
2	  C1	-19.951	7.038	-7.137	C.3	1	RES1	0.000	
3	  N1	-23.562	9.970	-8.947	N.pl3	1	RES1	0.000	
4	  O1	-15.851	14.246	-8.020	O.2	1	RES1	0.000	
5	  S1	-17.091	13.726	-8.615	S.O2	1	RES1	0.000	
6	  C2	-21.428	7.380	-7.234	C.2	1	RES1	0.000	
7	  N2	-23.587	11.833	-10.287	N.2	1	RES1	0.000	
8	  O2	-18.032	14.617	-9.182	O.2	1	RES1	0.000	
9	  C3	-21.825	8.457	-8.017	C.2	1	RES1	0.000	
10	  N3	-20.127	13.237	-8.433	N.pl3	1	RES1	0.000	
11	  O3	-25.477	8.487	-7.682	O.3	1	RES1	0.000	
12	  C4	-23.154	8.820	-8.165	C.2	1	RES1	0.000	
13	  N4	-21.863	11.602	-8.699	N.2	1	RES1	0.000	
14	  C5	-22.963	11.168	-9.313	C.2	1	RES1	0.000	
15	  N5	-21.915	3.006	-4.247	N.3	1	RES1	0.000	
16	  C6	-23.021	13.002	-10.695	C.2	1	RES1	0.000	
17	  C7	-21.879	13.522	-10.113	C.2	1	RES1	0.000	
18	  C8	-21.290	12.772	-9.075	C.2	1	RES1	0.000	
19	  C9	-19.363	12.668	-7.364	C.2	1	RES1	0.000	
20	 C10	-19.985	11.907	-6.381	C.2	1	RES1	0.000	
21	 C11	-19.212	11.326	-5.334	C.2	1	RES1	0.000	
22	 C12	-17.870	11.496	-5.285	C.2	1	RES1	0.000	
23	 C13	-17.207	12.254	-6.269	C.2	1	RES1	0.000	
24	 C14	-17.974	12.819	-7.328	C.2	1	RES1	0.000	
25	 C15	-16.659	12.460	-9.841	C.3	1	RES1	0.000	
26	 C16	-15.471	11.604	-9.385	C.3	1	RES1	0.000	
27	 C17	-16.381	13.136	-11.182	C.3	1	RES1	0.000	
28	 C18	-24.135	8.092	-7.499	C.2	1	RES1	0.000	
29	 C19	-26.547	7.708	-7.136	C.3	1	RES1	0.000	
30	 C20	-26.709	6.505	-8.051	C.3	1	RES1	0.000	
31	 C21	-27.821	8.533	-7.067	C.3	1	RES1	0.000	
32	 C22	-23.750	6.989	-6.684	C.2	1	RES1	0.000	
33	 C23	-22.405	6.632	-6.517	C.2	1	RES1	0.000	
34	 C24	-22.043	5.437	-5.638	C.3	1	RES1	0.000	
35	 C25	-21.971	4.108	-6.429	C.3	1	RES1	0.000	
36	 C26	-22.418	2.886	-5.596	C.3	1	RES1	0.000	
37	 C51	-22.504	4.134	-3.503	C.3	1	RES1	0.000	
38	 C52	-22.939	5.313	-4.399	C.3	1	RES1	0.000	
@<TRIPOS>BOND
1 1 17 1
2 2 6 1
3 3 12 1
4 3 14 1
5 4 5 2
6 5 8 2
7 5 24 1
8 5 25 1
9 6 9 ar
10 6 33 ar
11 7 14 ar
12 7 16 ar
13 9 12 ar
14 10 18 1
15 10 19 1
16 13 14 ar
17 13 18 ar
18 15 37 1
19 16 17 ar
20 17 18 ar
21 19 20 ar
22 20 21 ar
23 21 22 ar
24 22 23 ar
25 23 24 ar
26 19 24 ar
27 25 26 1
28 25 27 1
29 11 28 1
30 12 28 ar
31 28 32 ar
32 11 29 1
33 29 30 1
34 29 31 1
35 32 33 ar
36 33 34 1
37 34 35 1
38 34 38 1
39 35 36 1
40 15 36 1
41 37 38 1
@<TRIPOS>SUBSTRUCTURE
1	RES1	1	GROUP	1 ****	RES
