# created with PyMOL 2.5.2
@<TRIPOS>MOLECULE
BRD4_6YQN_TargetProtein
24 27 1                 
SMALL
USER_CHARGES
@<TRIPOS>ATOM
1	 CL1	25.754	17.898	-6.988	Cl	1	RES1	0.000	
2	  C1	26.017	15.090	1.287	C.3	1	RES1	0.000	
3	  N1	30.804	16.817	0.008	N.2	1	RES1	0.000	
4	  S1	28.505	16.311	1.388	S.2	1	RES1	0.000	
5	  C2	27.237	15.482	0.529	C.2	1	RES1	0.000	
6	  N2	32.700	17.780	0.537	N.2	1	RES1	0.000	
7	  C3	27.512	15.293	-0.810	C.2	1	RES1	0.000	
8	  N3	32.924	16.958	-0.528	N.2	1	RES1	0.000	
9	  C4	26.625	14.581	-1.731	C.3	1	RES1	0.000	
10	  C5	28.798	15.885	-1.189	C.2	1	RES1	0.000	
11	  C6	29.451	16.369	-0.079	C.2	1	RES1	0.000	
12	  C7	31.428	17.712	0.869	C.2	1	RES1	0.000	
13	  C8	30.800	18.501	1.928	C.3	1	RES1	0.000	
14	  C9	31.779	16.397	-0.857	C.2	1	RES1	0.000	
15	 C10	31.527	15.310	-1.885	C.3	1	RES1	0.000	
16	 N10	30.593	15.766	-2.867	N.2	1	RES1	0.000	
17	 C11	32.828	14.950	-2.594	C.3	1	RES1	0.000	
18	 C39	29.358	16.013	-2.539	C.2	1	RES1	0.000	
19	 C40	28.422	16.466	-3.644	C.2	1	RES1	0.000	
20	 C41	27.320	17.290	-3.377	C.2	1	RES1	0.000	
21	 C42	26.501	17.712	-4.395	C.2	1	RES1	0.000	
22	 C43	26.770	17.376	-5.708	C.2	1	RES1	0.000	
23	 C44	27.873	16.580	-5.994	C.2	1	RES1	0.000	
24	 C45	28.677	16.144	-4.972	C.2	1	RES1	0.000	
@<TRIPOS>BOND
1 1 22 1
2 2 5 1
3 3 11 1
4 3 12 ar
5 3 14 ar
6 4 5 ar
7 4 11 ar
8 5 7 ar
9 6 8 ar
10 6 12 ar
11 7 9 1
12 7 10 ar
13 8 14 ar
14 10 11 ar
15 12 13 1
16 14 15 1
17 15 16 1
18 15 17 1
19 16 18 2
20 10 18 1
21 18 19 1
22 19 20 ar
23 19 24 ar
24 20 21 ar
25 21 22 ar
26 22 23 ar
27 23 24 ar
@<TRIPOS>SUBSTRUCTURE
1	RES1	1	GROUP	1 ****	RES
