# created with PyMOL 2.5.2
@<TRIPOS>MOLECULE
ALK_4MKC_TargetProtein
38 41 1                 
SMALL
USER_CHARGES
@<TRIPOS>ATOM
1	 CL1	-21.232	14.987	-10.682	Cl	1	RES1	0.000	
2	  C1	-20.015	6.958	-7.176	C.3	1	RES1	0.000	
3	  N1	-23.604	9.907	-8.932	N.pl3	1	RES1	0.000	
4	  O1	-15.817	14.377	-7.990	O.2	1	RES1	0.000	
5	  S1	-17.047	13.839	-8.569	S.O2	1	RES1	0.000	
6	  C2	-21.461	7.296	-7.240	C.2	1	RES1	0.000	
7	  N2	-23.596	11.789	-10.273	N.2	1	RES1	0.000	
8	  O2	-18.009	14.761	-9.160	O.2	1	RES1	0.000	
9	  C3	-21.868	8.385	-8.056	C.2	1	RES1	0.000	
10	  N3	-20.084	13.172	-8.480	N.pl3	1	RES1	0.000	
11	  O3	-25.479	8.484	-7.618	O.3	1	RES1	0.000	
12	  C4	-23.202	8.782	-8.163	C.2	1	RES1	0.000	
13	  N4	-21.842	11.526	-8.720	N.2	1	RES1	0.000	
14	  C5	-22.977	11.098	-9.319	C.2	1	RES1	0.000	
15	  N5	-22.681	2.850	-4.328	N.3	1	RES1	0.000	
16	  C6	-23.034	12.971	-10.679	C.2	1	RES1	0.000	
17	  C7	-21.864	13.441	-10.125	C.2	1	RES1	0.000	
18	  C8	-21.276	12.697	-9.114	C.2	1	RES1	0.000	
19	  C9	-19.316	12.641	-7.437	C.2	1	RES1	0.000	
20	 C10	-19.880	11.899	-6.382	C.2	1	RES1	0.000	
21	 C11	-19.113	11.337	-5.342	C.2	1	RES1	0.000	
22	 C12	-17.748	11.542	-5.321	C.2	1	RES1	0.000	
23	 C13	-17.142	12.275	-6.293	C.2	1	RES1	0.000	
24	 C14	-17.909	12.861	-7.328	C.2	1	RES1	0.000	
25	 C15	-16.560	12.678	-9.872	C.3	1	RES1	0.000	
26	 C16	-15.353	11.828	-9.493	C.3	1	RES1	0.000	
27	 C17	-16.361	13.386	-11.227	C.3	1	RES1	0.000	
28	 C18	-24.155	8.037	-7.469	C.2	1	RES1	0.000	
29	 C19	-26.589	7.731	-7.041	C.3	1	RES1	0.000	
30	 C20	-26.791	6.508	-7.946	C.3	1	RES1	0.000	
31	 C21	-27.805	8.587	-6.996	C.3	1	RES1	0.000	
32	 C22	-23.789	6.979	-6.650	C.2	1	RES1	0.000	
33	 C23	-22.438	6.582	-6.547	C.2	1	RES1	0.000	
34	 C24	-22.094	5.396	-5.636	C.3	1	RES1	0.000	
35	 C25	-22.076	4.069	-6.366	C.3	1	RES1	0.000	
36	 C26	-21.744	2.904	-5.464	C.3	1	RES1	0.000	
37	 C53	-22.656	4.072	-3.538	C.3	1	RES1	0.000	
38	 C54	-23.003	5.285	-4.420	C.3	1	RES1	0.000	
@<TRIPOS>BOND
1 1 17 1
2 2 6 1
3 3 12 1
4 3 14 1
5 4 5 2
6 5 8 2
7 5 24 1
8 5 25 1
9 6 9 ar
10 6 33 ar
11 7 14 ar
12 7 16 ar
13 9 12 ar
14 10 18 1
15 10 19 1
16 13 14 ar
17 13 18 ar
18 15 37 1
19 16 17 ar
20 17 18 ar
21 19 20 ar
22 20 21 ar
23 21 22 ar
24 22 23 ar
25 23 24 ar
26 19 24 ar
27 25 26 1
28 25 27 1
29 11 28 1
30 12 28 ar
31 28 32 ar
32 11 29 1
33 29 30 1
34 29 31 1
35 32 33 ar
36 33 34 1
37 34 35 1
38 34 38 1
39 35 36 1
40 15 36 1
41 37 38 1
@<TRIPOS>SUBSTRUCTURE
1	RES1	1	GROUP	1 ****	RES
