# created with PyMOL 2.5.2
@<TRIPOS>MOLECULE
ALK_4MKC_TargetProtein
38 41 1                 
SMALL
USER_CHARGES
@<TRIPOS>ATOM
1	 CL1	-21.241	15.045	-10.640	Cl	1	RES1	0.000	
2	  C1	-19.925	7.086	-7.124	C.3	1	RES1	0.000	
3	  N1	-23.550	9.949	-8.957	N.pl3	1	RES1	0.000	
4	  O1	-15.869	14.456	-7.987	O.2	1	RES1	0.000	
5	  S1	-17.023	13.856	-8.620	S.O2	1	RES1	0.000	
6	  C2	-21.414	7.401	-7.202	C.2	1	RES1	0.000	
7	  N2	-23.577	11.843	-10.325	N.2	1	RES1	0.000	
8	  O2	-17.994	14.738	-9.272	O.2	1	RES1	0.000	
9	  C3	-21.791	8.483	-8.010	C.2	1	RES1	0.000	
10	  N3	-20.103	13.251	-8.447	N.pl3	1	RES1	0.000	
11	  O3	-25.433	8.515	-7.680	O.3	1	RES1	0.000	
12	  C4	-23.138	8.854	-8.170	C.2	1	RES1	0.000	
13	  N4	-21.856	11.613	-8.709	N.2	1	RES1	0.000	
14	  C5	-22.944	11.160	-9.310	C.2	1	RES1	0.000	
15	  N5	-22.617	2.834	-4.427	N.3	1	RES1	0.000	
16	  C6	-22.997	12.996	-10.681	C.2	1	RES1	0.000	
17	  C7	-21.854	13.532	-10.113	C.2	1	RES1	0.000	
18	  C8	-21.279	12.804	-9.081	C.2	1	RES1	0.000	
19	  C9	-19.312	12.700	-7.398	C.2	1	RES1	0.000	
20	 C10	-19.881	11.892	-6.421	C.2	1	RES1	0.000	
21	 C11	-19.085	11.363	-5.387	C.2	1	RES1	0.000	
22	 C12	-17.715	11.607	-5.310	C.2	1	RES1	0.000	
23	 C13	-17.132	12.392	-6.324	C.2	1	RES1	0.000	
24	 C14	-17.924	12.900	-7.369	C.2	1	RES1	0.000	
25	 C15	-16.456	12.667	-9.883	C.3	1	RES1	0.000	
26	 C16	-17.591	11.863	-10.479	C.3	1	RES1	0.000	
27	 C17	-15.363	11.738	-9.353	C.3	1	RES1	0.000	
28	 C18	-24.122	8.103	-7.501	C.2	1	RES1	0.000	
29	 C19	-26.535	7.721	-7.111	C.3	1	RES1	0.000	
30	 C20	-26.704	6.536	-8.024	C.3	1	RES1	0.000	
31	 C21	-27.793	8.550	-7.084	C.3	1	RES1	0.000	
32	 C22	-23.728	6.999	-6.690	C.2	1	RES1	0.000	
33	 C23	-22.380	6.622	-6.543	C.2	1	RES1	0.000	
34	 C24	-22.027	5.431	-5.680	C.3	1	RES1	0.000	
35	 C25	-21.995	4.124	-6.461	C.3	1	RES1	0.000	
36	 C26	-21.669	2.925	-5.540	C.3	1	RES1	0.000	
37	 C49	-22.617	4.072	-3.624	C.3	1	RES1	0.000	
38	 C50	-22.969	5.291	-4.454	C.3	1	RES1	0.000	
@<TRIPOS>BOND
1 1 17 1
2 2 6 1
3 3 12 1
4 3 14 1
5 4 5 2
6 5 8 2
7 5 24 1
8 5 25 1
9 6 9 ar
10 6 33 ar
11 7 14 ar
12 7 16 ar
13 9 12 ar
14 10 18 1
15 10 19 1
16 13 14 ar
17 13 18 ar
18 16 17 ar
19 17 18 ar
20 19 20 ar
21 20 21 ar
22 21 22 ar
23 22 23 ar
24 23 24 ar
25 19 24 ar
26 25 26 1
27 25 27 1
28 11 28 1
29 12 28 ar
30 28 32 ar
31 11 29 1
32 29 30 1
33 29 31 1
34 32 33 ar
35 33 34 1
36 34 35 1
37 34 38 1
38 35 36 1
39 15 36 1
40 15 37 1
41 37 38 1
@<TRIPOS>SUBSTRUCTURE
1	RES1	1	GROUP	1 ****	RES
