# created with PyMOL 2.5.2
@<TRIPOS>MOLECULE
ALK_4MKC_TargetProtein
38 41 1                 
SMALL
USER_CHARGES
@<TRIPOS>ATOM
1	 CL1	-20.924	15.067	-10.525	Cl	1	RES1	0.000	
2	  C1	-20.329	7.079	-7.642	C.3	1	RES1	0.000	
3	  N1	-23.816	10.145	-9.143	N.pl3	1	RES1	0.000	
4	  O1	-15.761	14.131	-7.645	O.2	1	RES1	0.000	
5	  S1	-16.941	13.658	-8.355	S.O2	1	RES1	0.000	
6	  C2	-21.810	7.409	-7.666	C.2	1	RES1	0.000	
7	  N2	-23.597	12.126	-10.377	N.2	1	RES1	0.000	
8	  O2	-17.893	14.602	-8.899	O.2	1	RES1	0.000	
9	  C3	-22.234	8.552	-8.361	C.2	1	RES1	0.000	
10	  N3	-20.022	13.039	-8.439	N.pl3	1	RES1	0.000	
11	  O3	-25.876	8.451	-7.882	O.3	1	RES1	0.000	
12	  C4	-23.551	8.951	-8.459	C.2	1	RES1	0.000	
13	  N4	-21.910	11.599	-8.798	N.2	1	RES1	0.000	
14	  C5	-23.069	11.318	-9.404	C.2	1	RES1	0.000	
15	  N5	-21.337	4.011	-3.830	N.3	1	RES1	0.000	
16	  C6	-22.936	13.261	-10.685	C.2	1	RES1	0.000	
17	  C7	-21.738	13.580	-10.086	C.2	1	RES1	0.000	
18	  C8	-21.258	12.743	-9.086	C.2	1	RES1	0.000	
19	  C9	-19.281	12.365	-7.451	C.2	1	RES1	0.000	
20	 C10	-19.910	11.477	-6.497	C.2	1	RES1	0.000	
21	 C11	-19.186	10.877	-5.503	C.2	1	RES1	0.000	
22	 C12	-17.831	11.078	-5.342	C.2	1	RES1	0.000	
23	 C13	-17.174	11.926	-6.231	C.2	1	RES1	0.000	
24	 C14	-17.882	12.566	-7.244	C.2	1	RES1	0.000	
25	 C15	-16.383	12.589	-9.690	C.3	1	RES1	0.000	
26	 C16	-17.547	11.837	-10.370	C.3	1	RES1	0.000	
27	 C17	-15.331	11.582	-9.206	C.3	1	RES1	0.000	
28	 C18	-24.500	8.139	-7.805	C.2	1	RES1	0.000	
29	 C19	-26.746	7.399	-7.385	C.3	1	RES1	0.000	
30	 C20	-28.065	7.972	-7.059	C.3	1	RES1	0.000	
31	 C21	-26.052	6.792	-6.146	C.3	1	RES1	0.000	
32	 C22	-24.116	7.000	-7.069	C.2	1	RES1	0.000	
33	 C23	-22.764	6.609	-7.003	C.2	1	RES1	0.000	
34	 C24	-22.403	5.376	-6.200	C.3	1	RES1	0.000	
35	 C25	-23.186	5.282	-4.858	C.3	1	RES1	0.000	
36	 C26	-22.773	4.074	-4.054	C.3	1	RES1	0.000	
37	 C51	-20.577	4.027	-5.078	C.3	1	RES1	0.000	
38	 C52	-20.896	5.227	-5.922	C.3	1	RES1	0.000	
@<TRIPOS>BOND
1 1 17 1
2 2 6 1
3 3 12 1
4 3 14 1
5 4 5 2
6 5 8 2
7 5 24 1
8 5 25 1
9 6 9 ar
10 6 33 ar
11 7 14 ar
12 7 16 ar
13 9 12 ar
14 10 18 1
15 10 19 1
16 13 14 ar
17 13 18 ar
18 15 37 1
19 16 17 ar
20 17 18 ar
21 19 20 ar
22 20 21 ar
23 21 22 ar
24 22 23 ar
25 23 24 ar
26 19 24 ar
27 25 26 1
28 25 27 1
29 11 28 1
30 12 28 ar
31 28 32 ar
32 11 29 1
33 29 30 1
34 29 31 1
35 32 33 ar
36 33 34 1
37 34 35 1
38 34 38 1
39 35 36 1
40 15 36 1
41 37 38 1
@<TRIPOS>SUBSTRUCTURE
1	RES1	1	GROUP	1 ****	RES
