# created with PyMOL 2.5.2
@<TRIPOS>MOLECULE
ALK_4MKC_TargetProtein
38 41 1                 
SMALL
USER_CHARGES
@<TRIPOS>ATOM
1	 CL1	-21.234	15.022	-10.683	Cl	1	RES1	0.000	
2	  C1	-19.951	7.076	-7.058	C.3	1	RES1	0.000	
3	  N1	-23.543	9.940	-8.920	N.pl3	1	RES1	0.000	
4	  O1	-15.871	14.495	-8.015	O.2	1	RES1	0.000	
5	  S1	-17.028	13.886	-8.660	S.O2	1	RES1	0.000	
6	  C2	-21.429	7.391	-7.195	C.2	1	RES1	0.000	
7	  N2	-23.551	11.811	-10.319	N.2	1	RES1	0.000	
8	  O2	-17.988	14.768	-9.280	O.2	1	RES1	0.000	
9	  C3	-21.803	8.479	-7.946	C.2	1	RES1	0.000	
10	  N3	-20.087	13.258	-8.462	N.pl3	1	RES1	0.000	
11	  O3	-25.454	8.517	-7.668	O.3	1	RES1	0.000	
12	  C4	-23.164	8.853	-8.113	C.2	1	RES1	0.000	
13	  N4	-21.817	11.592	-8.704	N.2	1	RES1	0.000	
14	  C5	-22.954	11.156	-9.289	C.2	1	RES1	0.000	
15	  N5	-22.636	2.799	-4.469	N.3	1	RES1	0.000	
16	  C6	-23.005	12.999	-10.705	C.2	1	RES1	0.000	
17	  C7	-21.862	13.516	-10.111	C.2	1	RES1	0.000	
18	  C8	-21.273	12.769	-9.092	C.2	1	RES1	0.000	
19	  C9	-19.279	12.715	-7.416	C.2	1	RES1	0.000	
20	 C10	-19.832	11.911	-6.427	C.2	1	RES1	0.000	
21	 C11	-19.056	11.370	-5.396	C.2	1	RES1	0.000	
22	 C12	-17.707	11.633	-5.325	C.2	1	RES1	0.000	
23	 C13	-17.116	12.432	-6.322	C.2	1	RES1	0.000	
24	 C14	-17.895	12.916	-7.385	C.2	1	RES1	0.000	
25	 C15	-16.447	12.732	-9.886	C.3	1	RES1	0.000	
26	 C16	-17.596	11.893	-10.469	C.3	1	RES1	0.000	
27	 C17	-15.322	11.810	-9.355	C.3	1	RES1	0.000	
28	 C18	-24.114	8.090	-7.465	C.2	1	RES1	0.000	
29	 C19	-26.528	7.716	-7.132	C.3	1	RES1	0.000	
30	 C20	-26.752	6.499	-8.011	C.3	1	RES1	0.000	
31	 C21	-27.758	8.616	-7.146	C.3	1	RES1	0.000	
32	 C22	-23.754	7.001	-6.679	C.2	1	RES1	0.000	
33	 C23	-22.423	6.619	-6.528	C.2	1	RES1	0.000	
34	 C24	-22.048	5.403	-5.647	C.3	1	RES1	0.000	
35	 C25	-22.029	4.121	-6.466	C.3	1	RES1	0.000	
36	 C26	-21.701	2.887	-5.577	C.3	1	RES1	0.000	
37	 C53	-22.646	3.991	-3.632	C.3	1	RES1	0.000	
38	 C54	-22.966	5.242	-4.444	C.3	1	RES1	0.000	
@<TRIPOS>BOND
1 1 17 1
2 2 6 1
3 3 12 1
4 3 14 1
5 4 5 2
6 5 8 2
7 5 24 1
8 5 25 1
9 6 9 ar
10 6 33 ar
11 7 14 ar
12 7 16 ar
13 9 12 ar
14 10 18 1
15 10 19 1
16 13 14 ar
17 13 18 ar
18 15 37 1
19 16 17 ar
20 17 18 ar
21 19 20 ar
22 20 21 ar
23 21 22 ar
24 22 23 ar
25 23 24 ar
26 19 24 ar
27 25 26 1
28 25 27 1
29 11 28 1
30 12 28 ar
31 28 32 ar
32 11 29 1
33 29 30 1
34 29 31 1
35 32 33 ar
36 33 34 1
37 34 35 1
38 34 38 1
39 35 36 1
40 15 36 1
41 37 38 1
@<TRIPOS>SUBSTRUCTURE
1	RES1	1	GROUP	1 ****	RES
