# created with PyMOL 2.5.2
@<TRIPOS>MOLECULE
ALK_4MKC_TargetProtein
38 41 1                 
SMALL
USER_CHARGES
@<TRIPOS>ATOM
1	 CL1	-20.955	14.987	-10.687	Cl	1	RES1	0.000	
2	  C1	-19.907	7.620	-7.335	C.3	1	RES1	0.000	
3	  N1	-23.744	10.101	-9.096	N.pl3	1	RES1	0.000	
4	  O1	-17.994	14.663	-8.918	O.2	1	RES1	0.000	
5	  S1	-17.038	13.676	-8.391	S.O2	1	RES1	0.000	
6	  C2	-21.387	7.782	-7.394	C.2	1	RES1	0.000	
7	  N2	-23.631	12.043	-10.479	N.2	1	RES1	0.000	
8	  O2	-15.869	14.121	-7.634	O.2	1	RES1	0.000	
9	  C3	-21.933	8.767	-8.195	C.2	1	RES1	0.000	
10	  N3	-20.084	13.066	-8.515	N.pl3	1	RES1	0.000	
11	  O3	-25.557	8.356	-7.579	O.3	1	RES1	0.000	
12	  C4	-23.333	9.035	-8.299	C.2	1	RES1	0.000	
13	  N4	-21.959	11.594	-8.835	N.2	1	RES1	0.000	
14	  C5	-23.108	11.302	-9.507	C.2	1	RES1	0.000	
15	  N5	-22.583	3.275	-4.461	N.3	1	RES1	0.000	
16	  C6	-22.934	13.144	-10.819	C.2	1	RES1	0.000	
17	  C7	-21.759	13.534	-10.196	C.2	1	RES1	0.000	
18	  C8	-21.285	12.723	-9.174	C.2	1	RES1	0.000	
19	  C9	-19.376	12.394	-7.468	C.2	1	RES1	0.000	
20	 C10	-20.026	11.543	-6.543	C.2	1	RES1	0.000	
21	 C11	-19.345	10.879	-5.518	C.2	1	RES1	0.000	
22	 C12	-17.966	11.057	-5.397	C.2	1	RES1	0.000	
23	 C13	-17.282	11.876	-6.284	C.2	1	RES1	0.000	
24	 C14	-17.975	12.558	-7.283	C.2	1	RES1	0.000	
25	 C15	-16.483	12.608	-9.743	C.3	1	RES1	0.000	
26	 C16	-17.673	11.900	-10.349	C.3	1	RES1	0.000	
27	 C17	-15.447	11.632	-9.298	C.3	1	RES1	0.000	
28	 C18	-24.157	8.218	-7.523	C.2	1	RES1	0.000	
29	 C19	-26.240	7.328	-6.864	C.3	1	RES1	0.000	
30	 C20	-26.240	6.066	-7.729	C.3	1	RES1	0.000	
31	 C21	-27.671	7.785	-6.604	C.3	1	RES1	0.000	
32	 C22	-23.648	7.224	-6.695	C.2	1	RES1	0.000	
33	 C23	-22.281	6.962	-6.612	C.2	1	RES1	0.000	
34	 C24	-21.768	5.886	-5.657	C.3	1	RES1	0.000	
35	 C25	-21.503	4.521	-6.343	C.3	1	RES1	0.000	
36	 C26	-22.539	3.470	-5.911	C.3	1	RES1	0.000	
37	 C49	-22.321	4.465	-3.669	C.3	1	RES1	0.000	
38	 C50	-22.625	5.764	-4.395	C.3	1	RES1	0.000	
@<TRIPOS>BOND
1 1 17 1
2 2 6 1
3 3 12 1
4 3 14 1
5 4 5 2
6 5 8 2
7 5 24 1
8 5 25 1
9 6 9 ar
10 6 33 ar
11 7 14 ar
12 7 16 ar
13 9 12 ar
14 10 18 1
15 10 19 1
16 13 14 ar
17 13 18 ar
18 16 17 ar
19 17 18 ar
20 19 20 ar
21 20 21 ar
22 21 22 ar
23 22 23 ar
24 23 24 ar
25 19 24 ar
26 25 26 1
27 25 27 1
28 11 28 1
29 12 28 ar
30 28 32 ar
31 11 29 1
32 29 30 1
33 29 31 1
34 32 33 ar
35 33 34 1
36 34 35 1
37 34 38 1
38 35 36 1
39 15 36 1
40 15 37 1
41 37 38 1
@<TRIPOS>SUBSTRUCTURE
1	RES1	1	GROUP	1 ****	RES
