# created with PyMOL 2.5.2
@<TRIPOS>MOLECULE
ALK_4MKC_TargetProtein
38 41 1                 
SMALL
USER_CHARGES
@<TRIPOS>ATOM
1	 CL1	-21.141	15.046	-10.619	Cl	1	RES1	0.000	
2	  C1	-19.897	7.375	-7.064	C.3	1	RES1	0.000	
3	  N1	-23.607	9.986	-9.045	N.pl3	1	RES1	0.000	
4	  O1	-15.875	14.119	-7.912	O.2	1	RES1	0.000	
5	  S1	-17.100	13.624	-8.543	S.O2	1	RES1	0.000	
6	  C2	-21.385	7.567	-7.194	C.2	1	RES1	0.000	
7	  N2	-23.615	11.937	-10.448	N.2	1	RES1	0.000	
8	  O2	-18.057	14.581	-9.106	O.2	1	RES1	0.000	
9	  C3	-21.820	8.616	-8.015	C.2	1	RES1	0.000	
10	  N3	-20.156	13.160	-8.431	N.pl3	1	RES1	0.000	
11	  O3	-25.480	8.427	-7.866	O.3	1	RES1	0.000	
12	  C4	-23.202	8.920	-8.240	C.2	1	RES1	0.000	
13	  N4	-21.930	11.583	-8.801	N.2	1	RES1	0.000	
14	  C5	-23.044	11.216	-9.465	C.2	1	RES1	0.000	
15	  N5	-22.574	2.924	-4.468	N.3	1	RES1	0.000	
16	  C6	-23.007	13.089	-10.767	C.2	1	RES1	0.000	
17	  C7	-21.852	13.567	-10.143	C.2	1	RES1	0.000	
18	  C8	-21.336	12.776	-9.133	C.2	1	RES1	0.000	
19	  C9	-19.435	12.550	-7.377	C.2	1	RES1	0.000	
20	 C10	-20.061	11.767	-6.399	C.2	1	RES1	0.000	
21	 C11	-19.342	11.157	-5.368	C.2	1	RES1	0.000	
22	 C12	-17.966	11.341	-5.284	C.2	1	RES1	0.000	
23	 C13	-17.304	12.074	-6.236	C.2	1	RES1	0.000	
24	 C14	-18.026	12.698	-7.271	C.2	1	RES1	0.000	
25	 C15	-16.694	12.432	-9.804	C.3	1	RES1	0.000	
26	 C16	-15.529	11.522	-9.398	C.3	1	RES1	0.000	
27	 C17	-16.334	13.129	-11.108	C.3	1	RES1	0.000	
28	 C18	-24.118	8.096	-7.612	C.2	1	RES1	0.000	
29	 C19	-26.497	7.514	-7.498	C.3	1	RES1	0.000	
30	 C20	-27.833	8.235	-7.392	C.3	1	RES1	0.000	
31	 C21	-26.113	6.930	-6.127	C.3	1	RES1	0.000	
32	 C22	-23.726	7.031	-6.835	C.2	1	RES1	0.000	
33	 C23	-22.363	6.713	-6.584	C.2	1	RES1	0.000	
34	 C24	-22.069	5.508	-5.700	C.3	1	RES1	0.000	
35	 C25	-21.950	4.188	-6.486	C.3	1	RES1	0.000	
36	 C26	-21.606	3.028	-5.561	C.3	1	RES1	0.000	
37	 C51	-22.579	4.141	-3.620	C.3	1	RES1	0.000	
38	 C52	-22.989	5.348	-4.476	C.3	1	RES1	0.000	
@<TRIPOS>BOND
1 1 17 1
2 2 6 1
3 3 12 1
4 3 14 1
5 4 5 2
6 5 8 2
7 5 24 1
8 5 25 1
9 6 9 ar
10 6 33 ar
11 7 14 ar
12 7 16 ar
13 9 12 ar
14 10 18 1
15 10 19 1
16 13 14 ar
17 13 18 ar
18 15 37 1
19 16 17 ar
20 17 18 ar
21 19 20 ar
22 20 21 ar
23 21 22 ar
24 22 23 ar
25 23 24 ar
26 19 24 ar
27 25 26 1
28 25 27 1
29 11 28 1
30 12 28 ar
31 28 32 ar
32 11 29 1
33 29 30 1
34 29 31 1
35 32 33 ar
36 33 34 1
37 34 35 1
38 34 38 1
39 35 36 1
40 15 36 1
41 37 38 1
@<TRIPOS>SUBSTRUCTURE
1	RES1	1	GROUP	1 ****	RES
