# created with PyMOL 2.5.2
@<TRIPOS>MOLECULE
ALK_4MKC_TargetProtein
38 41 1                 
SMALL
USER_CHARGES
@<TRIPOS>ATOM
1	 CL1	-21.184	14.990	-10.663	Cl	1	RES1	0.000	
2	  C1	-19.955	6.988	-7.179	C.3	1	RES1	0.000	
3	  N1	-23.566	9.924	-8.948	N.pl3	1	RES1	0.000	
4	  O1	-15.892	14.556	-7.936	O.2	1	RES1	0.000	
5	  S1	-17.054	13.999	-8.608	S.O2	1	RES1	0.000	
6	  C2	-21.435	7.319	-7.230	C.2	1	RES1	0.000	
7	  N2	-23.551	11.821	-10.289	N.2	1	RES1	0.000	
8	  O2	-18.067	14.870	-9.178	O.2	1	RES1	0.000	
9	  C3	-21.821	8.398	-8.034	C.2	1	RES1	0.000	
10	  N3	-20.071	13.185	-8.500	N.pl3	1	RES1	0.000	
11	  O3	-25.451	8.517	-7.660	O.3	1	RES1	0.000	
12	  C4	-23.147	8.820	-8.179	C.2	1	RES1	0.000	
13	  N4	-21.793	11.573	-8.731	N.2	1	RES1	0.000	
14	  C5	-22.934	11.118	-9.320	C.2	1	RES1	0.000	
15	  N5	-22.715	2.866	-4.371	N.3	1	RES1	0.000	
16	  C6	-22.998	12.990	-10.675	C.2	1	RES1	0.000	
17	  C7	-21.829	13.472	-10.118	C.2	1	RES1	0.000	
18	  C8	-21.227	12.714	-9.103	C.2	1	RES1	0.000	
19	  C9	-19.251	12.638	-7.438	C.2	1	RES1	0.000	
20	 C10	-19.767	11.874	-6.416	C.2	1	RES1	0.000	
21	 C11	-18.961	11.326	-5.390	C.2	1	RES1	0.000	
22	 C12	-17.592	11.558	-5.394	C.2	1	RES1	0.000	
23	 C13	-17.050	12.368	-6.384	C.2	1	RES1	0.000	
24	 C14	-17.858	12.907	-7.375	C.2	1	RES1	0.000	
25	 C15	-16.487	12.876	-9.899	C.3	1	RES1	0.000	
26	 C16	-17.663	12.053	-10.446	C.3	1	RES1	0.000	
27	 C17	-15.369	11.964	-9.445	C.3	1	RES1	0.000	
28	 C18	-24.131	8.076	-7.466	C.2	1	RES1	0.000	
29	 C19	-26.542	7.721	-7.103	C.3	1	RES1	0.000	
30	 C20	-26.763	6.488	-8.016	C.3	1	RES1	0.000	
31	 C21	-27.759	8.616	-7.128	C.3	1	RES1	0.000	
32	 C22	-23.745	6.977	-6.673	C.2	1	RES1	0.000	
33	 C23	-22.422	6.597	-6.506	C.2	1	RES1	0.000	
34	 C24	-22.065	5.382	-5.658	C.3	1	RES1	0.000	
35	 C25	-22.120	4.067	-6.430	C.3	1	RES1	0.000	
36	 C26	-21.811	2.892	-5.529	C.3	1	RES1	0.000	
37	 C53	-22.618	4.078	-3.583	C.3	1	RES1	0.000	
38	 C54	-22.947	5.338	-4.391	C.3	1	RES1	0.000	
@<TRIPOS>BOND
1 1 17 1
2 2 6 1
3 3 12 1
4 3 14 1
5 4 5 2
6 5 8 2
7 5 24 1
8 5 25 1
9 6 9 ar
10 6 33 ar
11 7 14 ar
12 7 16 ar
13 9 12 ar
14 10 18 1
15 10 19 1
16 13 14 ar
17 13 18 ar
18 15 37 1
19 16 17 ar
20 17 18 ar
21 19 20 ar
22 20 21 ar
23 21 22 ar
24 22 23 ar
25 23 24 ar
26 19 24 ar
27 25 26 1
28 25 27 1
29 11 28 1
30 12 28 ar
31 28 32 ar
32 11 29 1
33 29 30 1
34 29 31 1
35 32 33 ar
36 33 34 1
37 34 35 1
38 34 38 1
39 35 36 1
40 15 36 1
41 37 38 1
@<TRIPOS>SUBSTRUCTURE
1	RES1	1	GROUP	1 ****	RES
