# created with PyMOL 2.5.2
@<TRIPOS>MOLECULE
ALK_4MKC_TargetProtein
38 41 1                 
SMALL
USER_CHARGES
@<TRIPOS>ATOM
1	 CL1	-21.038	15.076	-10.420	Cl	1	RES1	0.000	
2	  C1	-20.174	6.999	-7.472	C.3	1	RES1	0.000	
3	  N1	-23.756	10.051	-9.132	N.pl3	1	RES1	0.000	
4	  O1	-18.063	14.397	-8.986	O.2	1	RES1	0.000	
5	  S1	-17.109	13.442	-8.443	S.O2	1	RES1	0.000	
6	  C2	-21.652	7.342	-7.553	C.2	1	RES1	0.000	
7	  N2	-23.643	12.064	-10.434	N.2	1	RES1	0.000	
8	  O2	-15.885	13.926	-7.813	O.2	1	RES1	0.000	
9	  C3	-22.041	8.472	-8.267	C.2	1	RES1	0.000	
10	  N3	-20.184	13.033	-8.318	N.pl3	1	RES1	0.000	
11	  O3	-25.661	8.566	-7.963	O.3	1	RES1	0.000	
12	  C4	-23.359	8.896	-8.387	C.2	1	RES1	0.000	
13	  N4	-22.040	11.546	-8.769	N.2	1	RES1	0.000	
14	  C5	-23.142	11.276	-9.467	C.2	1	RES1	0.000	
15	  N5	-21.290	3.920	-3.778	N.3	1	RES1	0.000	
16	  C6	-22.992	13.209	-10.685	C.2	1	RES1	0.000	
17	  C7	-21.815	13.589	-10.011	C.2	1	RES1	0.000	
18	  C8	-21.374	12.705	-9.017	C.2	1	RES1	0.000	
19	  C9	-19.463	12.380	-7.286	C.2	1	RES1	0.000	
20	 C10	-20.081	11.550	-6.320	C.2	1	RES1	0.000	
21	 C11	-19.336	10.893	-5.335	C.2	1	RES1	0.000	
22	 C12	-17.972	11.034	-5.276	C.2	1	RES1	0.000	
23	 C13	-17.309	11.813	-6.199	C.2	1	RES1	0.000	
24	 C14	-18.032	12.464	-7.217	C.2	1	RES1	0.000	
25	 C15	-16.689	12.300	-9.730	C.3	1	RES1	0.000	
26	 C16	-15.499	11.375	-9.336	C.3	1	RES1	0.000	
27	 C17	-16.369	13.015	-11.037	C.3	1	RES1	0.000	
28	 C18	-24.366	8.089	-7.789	C.2	1	RES1	0.000	
29	 C19	-26.768	7.735	-7.550	C.3	1	RES1	0.000	
30	 C20	-27.971	8.619	-7.368	C.3	1	RES1	0.000	
31	 C21	-26.453	7.017	-6.259	C.3	1	RES1	0.000	
32	 C22	-23.983	6.966	-7.057	C.2	1	RES1	0.000	
33	 C23	-22.651	6.556	-6.935	C.2	1	RES1	0.000	
34	 C24	-22.310	5.285	-6.132	C.3	1	RES1	0.000	
35	 C25	-23.130	5.207	-4.833	C.3	1	RES1	0.000	
36	 C26	-22.722	3.934	-4.042	C.3	1	RES1	0.000	
37	 C50	-20.482	3.971	-4.988	C.3	1	RES1	0.000	
38	 C51	-20.809	5.204	-5.795	C.3	1	RES1	0.000	
@<TRIPOS>BOND
1 1 17 1
2 2 6 1
3 3 12 1
4 3 14 1
5 4 5 2
6 5 8 2
7 5 24 1
8 5 25 1
9 6 9 ar
10 6 33 ar
11 7 14 ar
12 7 16 ar
13 9 12 ar
14 10 18 1
15 10 19 1
16 13 14 ar
17 13 18 ar
18 15 37 1
19 16 17 ar
20 17 18 ar
21 19 20 ar
22 20 21 ar
23 21 22 ar
24 22 23 ar
25 23 24 ar
26 19 24 ar
27 25 26 1
28 25 27 1
29 11 28 1
30 12 28 ar
31 28 32 ar
32 11 29 1
33 29 30 1
34 29 31 1
35 32 33 ar
36 33 34 1
37 34 35 1
38 34 38 1
39 35 36 1
40 15 36 1
41 37 38 1
@<TRIPOS>SUBSTRUCTURE
1	RES1	1	GROUP	1 ****	RES
