# created with PyMOL 2.5.2
@<TRIPOS>MOLECULE
ALK_4MKC_TargetProtein
38 41 1                 
SMALL
USER_CHARGES
@<TRIPOS>ATOM
1	 CL1	-21.186	15.087	-10.487	Cl	1	RES1	0.000	
2	  C1	-20.171	6.898	-7.483	C.3	1	RES1	0.000	
3	  N1	-23.702	10.010	-8.941	N.pl3	1	RES1	0.000	
4	  O1	-18.028	14.542	-9.129	O.2	1	RES1	0.000	
5	  S1	-17.057	13.616	-8.540	S.O2	1	RES1	0.000	
6	  C2	-21.613	7.263	-7.478	C.2	1	RES1	0.000	
7	  N2	-23.668	11.957	-10.220	N.2	1	RES1	0.000	
8	  O2	-15.871	14.110	-7.939	O.2	1	RES1	0.000	
9	  C3	-22.006	8.407	-8.191	C.2	1	RES1	0.000	
10	  N3	-20.123	13.148	-8.384	N.pl3	1	RES1	0.000	
11	  O3	-25.617	8.620	-7.686	O.3	1	RES1	0.000	
12	  C4	-23.318	8.822	-8.259	C.2	1	RES1	0.000	
13	  N4	-21.906	11.572	-8.674	N.2	1	RES1	0.000	
14	  C5	-23.052	11.229	-9.287	C.2	1	RES1	0.000	
15	  N5	-21.534	3.600	-3.702	N.3	1	RES1	0.000	
16	  C6	-23.073	13.111	-10.559	C.2	1	RES1	0.000	
17	  C7	-21.884	13.587	-10.005	C.2	1	RES1	0.000	
18	  C8	-21.299	12.741	-9.021	C.2	1	RES1	0.000	
19	  C9	-19.359	12.509	-7.375	C.2	1	RES1	0.000	
20	 C10	-19.957	11.688	-6.413	C.2	1	RES1	0.000	
21	 C11	-19.219	11.053	-5.404	C.2	1	RES1	0.000	
22	 C12	-17.844	11.216	-5.351	C.2	1	RES1	0.000	
23	 C13	-17.197	12.011	-6.278	C.2	1	RES1	0.000	
24	 C14	-17.947	12.635	-7.334	C.2	1	RES1	0.000	
25	 C15	-16.593	12.417	-9.834	C.3	1	RES1	0.000	
26	 C16	-15.400	11.548	-9.394	C.3	1	RES1	0.000	
27	 C17	-16.280	13.139	-11.121	C.3	1	RES1	0.000	
28	 C18	-24.283	8.127	-7.557	C.2	1	RES1	0.000	
29	 C19	-26.716	7.802	-7.161	C.3	1	RES1	0.000	
30	 C20	-26.936	6.624	-8.114	C.3	1	RES1	0.000	
31	 C21	-27.933	8.723	-7.127	C.3	1	RES1	0.000	
32	 C22	-23.934	6.965	-6.863	C.2	1	RES1	0.000	
33	 C23	-22.617	6.490	-6.798	C.2	1	RES1	0.000	
34	 C24	-22.384	5.204	-5.996	C.3	1	RES1	0.000	
35	 C25	-23.197	5.195	-4.662	C.3	1	RES1	0.000	
36	 C26	-22.975	3.888	-3.909	C.3	1	RES1	0.000	
37	 C52	-20.820	3.531	-4.979	C.3	1	RES1	0.000	
38	 C53	-20.919	4.835	-5.741	C.3	1	RES1	0.000	
@<TRIPOS>BOND
1 1 17 1
2 2 6 1
3 3 12 1
4 3 14 1
5 4 5 2
6 5 8 2
7 5 24 1
8 5 25 1
9 6 9 ar
10 6 33 ar
11 7 14 ar
12 7 16 ar
13 9 12 ar
14 10 18 1
15 10 19 1
16 13 14 ar
17 13 18 ar
18 15 37 1
19 16 17 ar
20 17 18 ar
21 19 20 ar
22 20 21 ar
23 21 22 ar
24 22 23 ar
25 23 24 ar
26 19 24 ar
27 25 26 1
28 25 27 1
29 11 28 1
30 12 28 ar
31 28 32 ar
32 11 29 1
33 29 30 1
34 29 31 1
35 32 33 ar
36 33 34 1
37 34 35 1
38 34 38 1
39 35 36 1
40 15 36 1
41 37 38 1
@<TRIPOS>SUBSTRUCTURE
1	RES1	1	GROUP	1 ****	RES
