# created with PyMOL 2.5.2
@<TRIPOS>MOLECULE
ALK_4MKC_TargetProtein
38 41 1                 
SMALL
USER_CHARGES
@<TRIPOS>ATOM
1	 CL1	-21.069	15.084	-10.405	Cl	1	RES1	0.000	
2	  C1	-20.161	7.105	-7.488	C.3	1	RES1	0.000	
3	  N1	-23.817	10.064	-9.135	N.pl3	1	RES1	0.000	
4	  O1	-15.878	13.735	-7.641	O.2	1	RES1	0.000	
5	  S1	-17.076	13.374	-8.339	S.O2	1	RES1	0.000	
6	  C2	-21.657	7.426	-7.574	C.2	1	RES1	0.000	
7	  N2	-23.677	12.109	-10.415	N.2	1	RES1	0.000	
8	  O2	-17.924	14.444	-8.833	O.2	1	RES1	0.000	
9	  C3	-22.023	8.555	-8.294	C.2	1	RES1	0.000	
10	  N3	-20.189	12.995	-8.368	N.pl3	1	RES1	0.000	
11	  O3	-25.689	8.550	-7.962	O.3	1	RES1	0.000	
12	  C4	-23.386	8.924	-8.416	C.2	1	RES1	0.000	
13	  N4	-22.069	11.562	-8.795	N.2	1	RES1	0.000	
14	  C5	-23.206	11.278	-9.475	C.2	1	RES1	0.000	
15	  N5	-21.209	4.047	-3.721	N.3	1	RES1	0.000	
16	  C6	-23.015	13.250	-10.667	C.2	1	RES1	0.000	
17	  C7	-21.863	13.599	-9.999	C.2	1	RES1	0.000	
18	  C8	-21.379	12.699	-9.038	C.2	1	RES1	0.000	
19	  C9	-19.471	12.280	-7.361	C.2	1	RES1	0.000	
20	 C10	-20.139	11.462	-6.439	C.2	1	RES1	0.000	
21	 C11	-19.468	10.736	-5.445	C.2	1	RES1	0.000	
22	 C12	-18.102	10.809	-5.346	C.2	1	RES1	0.000	
23	 C13	-17.387	11.610	-6.267	C.2	1	RES1	0.000	
24	 C14	-18.069	12.363	-7.237	C.2	1	RES1	0.000	
25	 C15	-16.642	12.332	-9.737	C.3	1	RES1	0.000	
26	 C16	-15.537	11.356	-9.418	C.3	1	RES1	0.000	
27	 C17	-16.301	13.140	-10.990	C.3	1	RES1	0.000	
28	 C18	-24.347	8.115	-7.810	C.2	1	RES1	0.000	
29	 C19	-26.753	7.689	-7.542	C.3	1	RES1	0.000	
30	 C20	-28.002	8.577	-7.340	C.3	1	RES1	0.000	
31	 C21	-26.382	7.010	-6.217	C.3	1	RES1	0.000	
32	 C22	-23.970	6.978	-7.064	C.2	1	RES1	0.000	
33	 C23	-22.616	6.608	-6.926	C.2	1	RES1	0.000	
34	 C24	-22.253	5.368	-6.115	C.3	1	RES1	0.000	
35	 C25	-23.054	5.270	-4.807	C.3	1	RES1	0.000	
36	 C26	-22.649	4.054	-3.992	C.3	1	RES1	0.000	
37	 C50	-20.438	4.068	-4.958	C.3	1	RES1	0.000	
38	 C51	-20.747	5.294	-5.816	C.3	1	RES1	0.000	
@<TRIPOS>BOND
1 1 17 1
2 2 6 1
3 3 12 1
4 3 14 1
5 4 5 2
6 5 8 2
7 5 24 1
8 5 25 1
9 6 9 ar
10 6 33 ar
11 7 14 ar
12 7 16 ar
13 9 12 ar
14 10 18 1
15 10 19 1
16 13 14 ar
17 13 18 ar
18 15 37 1
19 16 17 ar
20 17 18 ar
21 19 20 ar
22 20 21 ar
23 21 22 ar
24 22 23 ar
25 23 24 ar
26 19 24 ar
27 25 26 1
28 25 27 1
29 11 28 1
30 12 28 ar
31 28 32 ar
32 11 29 1
33 29 30 1
34 29 31 1
35 32 33 ar
36 33 34 1
37 34 35 1
38 34 38 1
39 35 36 1
40 15 36 1
41 37 38 1
@<TRIPOS>SUBSTRUCTURE
1	RES1	1	GROUP	1 ****	RES
