# created with PyMOL 2.5.2
@<TRIPOS>MOLECULE
SIRT2_4RMI_TargetProtein
25 27 1                 
SMALL
USER_CHARGES
@<TRIPOS>ATOM
1	  C1	-18.297	8.013	8.531	C.3	1	RES1	0.000	
2	  N1	-15.436	7.547	11.639	N.2	1	RES1	0.000	
3	  O1	-19.122	3.212	11.941	O.2	1	RES1	0.000	
4	  S1	-16.959	5.897	13.040	S.3	1	RES1	0.000	
5	  C2	-17.270	7.877	9.612	C.2	1	RES1	0.000	
6	  N2	-18.640	4.909	10.406	N.pl3	1	RES1	0.000	
7	  S2	-19.086	2.556	9.089	S.2	1	RES1	0.000	
8	  C3	-16.057	8.525	9.532	C.2	1	RES1	0.000	
9	  N3	-18.393	4.821	8.050	N.2	1	RES1	0.000	
10	  C4	-15.145	8.352	10.568	C.2	1	RES1	0.000	
11	  C5	-13.806	9.030	10.526	C.3	1	RES1	0.000	
12	  C6	-16.637	6.942	11.629	C.2	1	RES1	0.000	
13	  C7	-18.710	5.450	12.762	C.3	1	RES1	0.000	
14	  C8	-18.838	4.388	11.661	C.2	1	RES1	0.000	
15	  C9	-18.680	4.236	9.188	C.2	1	RES1	0.000	
16	 C10	-18.524	3.919	7.008	C.2	1	RES1	0.000	
17	 N10	-17.573	7.074	10.655	N.2	1	RES1	0.000	
18	 C11	-18.878	2.624	7.402	C.2	1	RES1	0.000	
19	 C12	-19.101	1.445	6.539	C.3	1	RES1	0.000	
20	 C13	-17.948	0.454	6.571	C.2	1	RES1	0.000	
21	 C14	-17.726	-0.295	7.740	C.2	1	RES1	0.000	
22	 C15	-16.664	-1.226	7.816	C.2	1	RES1	0.000	
23	 C16	-15.831	-1.360	6.724	C.2	1	RES1	0.000	
24	 C17	-16.046	-0.619	5.566	C.2	1	RES1	0.000	
25	 C40	-17.097	0.295	5.515	C.2	1	RES1	0.000	
@<TRIPOS>BOND
1 1 5 1
2 2 10 ar
3 2 12 ar
4 3 14 2
5 4 12 1
6 4 13 1
7 5 8 ar
8 6 14 1
9 6 15 1
10 7 15 ar
11 8 10 ar
12 9 15 ar
13 10 11 1
14 13 14 1
15 9 16 ar
16 16 18 ar
17 5 17 ar
18 12 17 ar
19 7 18 ar
20 18 19 1
21 19 20 1
22 20 21 ar
23 20 25 ar
24 21 22 ar
25 22 23 ar
26 23 24 ar
27 24 25 ar
@<TRIPOS>SUBSTRUCTURE
1	RES1	1	GROUP	1 ****	RES
