# created with PyMOL 2.5.2
@<TRIPOS>MOLECULE
ALK_4MKC_TargetProtein
38 41 1                 
SMALL
USER_CHARGES
@<TRIPOS>ATOM
1	 CL1	-20.999	15.073	-10.490	Cl	1	RES1	0.000	
2	  C1	-20.194	7.033	-7.536	C.3	1	RES1	0.000	
3	  N1	-23.782	10.074	-9.145	N.pl3	1	RES1	0.000	
4	  O1	-17.954	14.614	-8.778	O.2	1	RES1	0.000	
5	  S1	-17.025	13.621	-8.305	S.O2	1	RES1	0.000	
6	  C2	-21.640	7.389	-7.595	C.2	1	RES1	0.000	
7	  N2	-23.686	12.112	-10.452	N.2	1	RES1	0.000	
8	  O2	-15.847	14.031	-7.545	O.2	1	RES1	0.000	
9	  C3	-22.033	8.532	-8.316	C.2	1	RES1	0.000	
10	  N3	-20.108	12.979	-8.416	N.pl3	1	RES1	0.000	
11	  O3	-25.670	8.594	-7.940	O.3	1	RES1	0.000	
12	  C4	-23.364	8.927	-8.431	C.2	1	RES1	0.000	
13	  N4	-22.014	11.544	-8.818	N.2	1	RES1	0.000	
14	  C5	-23.145	11.287	-9.514	C.2	1	RES1	0.000	
15	  N5	-21.205	4.008	-3.760	N.3	1	RES1	0.000	
16	  C6	-22.993	13.241	-10.711	C.2	1	RES1	0.000	
17	  C7	-21.804	13.574	-10.077	C.2	1	RES1	0.000	
18	  C8	-21.317	12.694	-9.118	C.2	1	RES1	0.000	
19	  C9	-19.384	12.274	-7.430	C.2	1	RES1	0.000	
20	 C10	-20.014	11.357	-6.542	C.2	1	RES1	0.000	
21	 C11	-19.309	10.695	-5.558	C.2	1	RES1	0.000	
22	 C12	-17.928	10.887	-5.438	C.2	1	RES1	0.000	
23	 C13	-17.280	11.758	-6.280	C.2	1	RES1	0.000	
24	 C14	-18.012	12.470	-7.232	C.2	1	RES1	0.000	
25	 C15	-16.518	12.583	-9.667	C.3	1	RES1	0.000	
26	 C16	-17.703	11.873	-10.340	C.3	1	RES1	0.000	
27	 C17	-15.498	11.562	-9.197	C.3	1	RES1	0.000	
28	 C18	-24.331	8.131	-7.812	C.2	1	RES1	0.000	
29	 C19	-26.764	7.750	-7.508	C.3	1	RES1	0.000	
30	 C20	-27.955	8.663	-7.292	C.3	1	RES1	0.000	
31	 C21	-26.382	7.044	-6.199	C.3	1	RES1	0.000	
32	 C22	-23.984	6.986	-7.077	C.2	1	RES1	0.000	
33	 C23	-22.631	6.611	-6.961	C.2	1	RES1	0.000	
34	 C24	-22.264	5.346	-6.160	C.3	1	RES1	0.000	
35	 C25	-23.053	5.247	-4.836	C.3	1	RES1	0.000	
36	 C26	-22.649	4.020	-4.058	C.3	1	RES1	0.000	
37	 C52	-20.407	4.064	-5.004	C.3	1	RES1	0.000	
38	 C53	-20.772	5.267	-5.855	C.3	1	RES1	0.000	
@<TRIPOS>BOND
1 1 17 1
2 2 6 1
3 3 12 1
4 3 14 1
5 4 5 2
6 5 8 2
7 5 24 1
8 5 25 1
9 6 9 ar
10 6 33 ar
11 7 14 ar
12 7 16 ar
13 9 12 ar
14 10 18 1
15 10 19 1
16 13 14 ar
17 13 18 ar
18 15 37 1
19 16 17 ar
20 17 18 ar
21 19 20 ar
22 20 21 ar
23 21 22 ar
24 22 23 ar
25 23 24 ar
26 19 24 ar
27 25 26 1
28 25 27 1
29 11 28 1
30 12 28 ar
31 28 32 ar
32 11 29 1
33 29 30 1
34 29 31 1
35 32 33 ar
36 33 34 1
37 34 35 1
38 34 38 1
39 35 36 1
40 15 36 1
41 37 38 1
@<TRIPOS>SUBSTRUCTURE
1	RES1	1	GROUP	1 ****	RES
