# created with PyMOL 2.5.2
@<TRIPOS>MOLECULE
ALK_4MKC_TargetProtein
38 41 1                 
SMALL
USER_CHARGES
@<TRIPOS>ATOM
1	 CL1	-21.246	14.995	-10.683	Cl	1	RES1	0.000	
2	  C1	-19.989	6.953	-7.169	C.3	1	RES1	0.000	
3	  N1	-23.598	9.911	-8.924	N.pl3	1	RES1	0.000	
4	  O1	-15.842	14.347	-7.917	O.2	1	RES1	0.000	
5	  S1	-17.051	13.818	-8.586	S.O2	1	RES1	0.000	
6	  C2	-21.472	7.307	-7.229	C.2	1	RES1	0.000	
7	  N2	-23.603	11.792	-10.282	N.2	1	RES1	0.000	
8	  O2	-17.978	14.770	-9.185	O.2	1	RES1	0.000	
9	  C3	-21.852	8.380	-8.030	C.2	1	RES1	0.000	
10	  N3	-20.103	13.213	-8.475	N.pl3	1	RES1	0.000	
11	  O3	-25.483	8.513	-7.637	O.3	1	RES1	0.000	
12	  C4	-23.189	8.798	-8.157	C.2	1	RES1	0.000	
13	  N4	-21.842	11.546	-8.725	N.2	1	RES1	0.000	
14	  C5	-22.961	11.109	-9.318	C.2	1	RES1	0.000	
15	  N5	-22.662	2.836	-4.334	N.3	1	RES1	0.000	
16	  C6	-23.042	12.957	-10.694	C.2	1	RES1	0.000	
17	  C7	-21.891	13.475	-10.137	C.2	1	RES1	0.000	
18	  C8	-21.276	12.713	-9.120	C.2	1	RES1	0.000	
19	  C9	-19.337	12.655	-7.427	C.2	1	RES1	0.000	
20	 C10	-19.929	11.879	-6.417	C.2	1	RES1	0.000	
21	 C11	-19.162	11.305	-5.410	C.2	1	RES1	0.000	
22	 C12	-17.766	11.495	-5.349	C.2	1	RES1	0.000	
23	 C13	-17.178	12.283	-6.315	C.2	1	RES1	0.000	
24	 C14	-17.936	12.829	-7.342	C.2	1	RES1	0.000	
25	 C15	-16.551	12.640	-9.872	C.3	1	RES1	0.000	
26	 C16	-15.354	11.822	-9.420	C.3	1	RES1	0.000	
27	 C17	-16.263	13.333	-11.190	C.3	1	RES1	0.000	
28	 C18	-24.151	8.060	-7.457	C.2	1	RES1	0.000	
29	 C19	-26.565	7.751	-7.065	C.3	1	RES1	0.000	
30	 C20	-26.776	6.538	-7.950	C.3	1	RES1	0.000	
31	 C21	-27.844	8.581	-7.000	C.3	1	RES1	0.000	
32	 C22	-23.785	6.989	-6.641	C.2	1	RES1	0.000	
33	 C23	-22.440	6.576	-6.517	C.2	1	RES1	0.000	
34	 C24	-22.076	5.387	-5.603	C.3	1	RES1	0.000	
35	 C25	-22.063	4.076	-6.395	C.3	1	RES1	0.000	
36	 C26	-21.723	2.903	-5.479	C.3	1	RES1	0.000	
37	 C49	-22.653	4.081	-3.536	C.3	1	RES1	0.000	
38	 C50	-22.986	5.303	-4.405	C.3	1	RES1	0.000	
@<TRIPOS>BOND
1 1 17 1
2 2 6 1
3 3 12 1
4 3 14 1
5 4 5 2
6 5 8 2
7 5 24 1
8 5 25 1
9 6 9 ar
10 6 33 ar
11 7 14 ar
12 7 16 ar
13 9 12 ar
14 10 18 1
15 10 19 1
16 13 14 ar
17 13 18 ar
18 16 17 ar
19 17 18 ar
20 19 20 ar
21 20 21 ar
22 21 22 ar
23 22 23 ar
24 23 24 ar
25 19 24 ar
26 25 26 1
27 25 27 1
28 11 28 1
29 12 28 ar
30 28 32 ar
31 11 29 1
32 29 30 1
33 29 31 1
34 32 33 ar
35 33 34 1
36 34 35 1
37 34 38 1
38 35 36 1
39 15 36 1
40 15 37 1
41 37 38 1
@<TRIPOS>SUBSTRUCTURE
1	RES1	1	GROUP	1 ****	RES
