# created with PyMOL 2.5.2
@<TRIPOS>MOLECULE
ALK_4MKC_TargetProtein
38 41 1                 
SMALL
USER_CHARGES
@<TRIPOS>ATOM
1	 CL1	-21.148	15.052	-10.543	Cl	1	RES1	0.000	
2	  C1	-20.196	6.819	-7.609	C.3	1	RES1	0.000	
3	  N1	-23.710	10.018	-8.964	N.pl3	1	RES1	0.000	
4	  O1	-18.006	14.526	-9.066	O.2	1	RES1	0.000	
5	  S1	-17.060	13.598	-8.516	S.O2	1	RES1	0.000	
6	  C2	-21.644	7.217	-7.507	C.2	1	RES1	0.000	
7	  N2	-23.648	11.952	-10.253	N.2	1	RES1	0.000	
8	  O2	-15.854	14.075	-7.900	O.2	1	RES1	0.000	
9	  C3	-22.019	8.369	-8.210	C.2	1	RES1	0.000	
10	  N3	-20.105	13.143	-8.392	N.pl3	1	RES1	0.000	
11	  O3	-25.619	8.642	-7.668	O.3	1	RES1	0.000	
12	  C4	-23.332	8.838	-8.261	C.2	1	RES1	0.000	
13	  N4	-21.897	11.568	-8.700	N.2	1	RES1	0.000	
14	  C5	-23.056	11.195	-9.301	C.2	1	RES1	0.000	
15	  N5	-21.461	3.659	-3.708	N.3	1	RES1	0.000	
16	  C6	-23.041	13.109	-10.607	C.2	1	RES1	0.000	
17	  C7	-21.859	13.572	-10.017	C.2	1	RES1	0.000	
18	  C8	-21.306	12.744	-9.029	C.2	1	RES1	0.000	
19	  C9	-19.365	12.491	-7.370	C.2	1	RES1	0.000	
20	 C10	-19.989	11.697	-6.405	C.2	1	RES1	0.000	
21	 C11	-19.272	11.067	-5.419	C.2	1	RES1	0.000	
22	 C12	-17.899	11.220	-5.326	C.2	1	RES1	0.000	
23	 C13	-17.240	11.994	-6.246	C.2	1	RES1	0.000	
24	 C14	-17.966	12.624	-7.275	C.2	1	RES1	0.000	
25	 C15	-16.643	12.413	-9.779	C.3	1	RES1	0.000	
26	 C16	-15.463	11.500	-9.395	C.3	1	RES1	0.000	
27	 C17	-16.286	13.145	-11.096	C.3	1	RES1	0.000	
28	 C18	-24.299	8.134	-7.569	C.2	1	RES1	0.000	
29	 C19	-26.702	7.874	-7.110	C.3	1	RES1	0.000	
30	 C20	-26.914	6.688	-8.089	C.3	1	RES1	0.000	
31	 C21	-27.992	8.714	-7.051	C.3	1	RES1	0.000	
32	 C22	-23.951	6.975	-6.852	C.2	1	RES1	0.000	
33	 C23	-22.639	6.482	-6.825	C.2	1	RES1	0.000	
34	 C24	-22.383	5.232	-5.976	C.3	1	RES1	0.000	
35	 C25	-23.147	5.202	-4.682	C.3	1	RES1	0.000	
36	 C26	-22.897	3.888	-3.919	C.3	1	RES1	0.000	
37	 C51	-20.728	3.593	-4.977	C.3	1	RES1	0.000	
38	 C52	-20.877	4.890	-5.780	C.3	1	RES1	0.000	
@<TRIPOS>BOND
1 1 17 1
2 2 6 1
3 3 12 1
4 3 14 1
5 4 5 2
6 5 8 2
7 5 24 1
8 5 25 1
9 6 9 ar
10 6 33 ar
11 7 14 ar
12 7 16 ar
13 9 12 ar
14 10 18 1
15 10 19 1
16 13 14 ar
17 13 18 ar
18 15 37 1
19 16 17 ar
20 17 18 ar
21 19 20 ar
22 20 21 ar
23 21 22 ar
24 22 23 ar
25 23 24 ar
26 19 24 ar
27 25 26 1
28 25 27 1
29 11 28 1
30 12 28 ar
31 28 32 ar
32 11 29 1
33 29 30 1
34 29 31 1
35 32 33 ar
36 33 34 1
37 34 35 1
38 34 38 1
39 35 36 1
40 15 36 1
41 37 38 1
@<TRIPOS>SUBSTRUCTURE
1	RES1	1	GROUP	1 ****	RES
