# created with PyMOL 2.5.2
@<TRIPOS>MOLECULE
ALK_4MKC_TargetProtein
38 41 1                 
SMALL
USER_CHARGES
@<TRIPOS>ATOM
1	 CL1	-21.218	14.967	-10.721	Cl	1	RES1	0.000	
2	  C1	-19.970	7.031	-7.093	C.3	1	RES1	0.000	
3	  N1	-23.602	9.914	-8.893	N.pl3	1	RES1	0.000	
4	  O1	-18.035	14.686	-9.232	O.2	1	RES1	0.000	
5	  S1	-17.057	13.785	-8.630	S.O2	1	RES1	0.000	
6	  C2	-21.436	7.313	-7.165	C.2	1	RES1	0.000	
7	  N2	-23.597	11.805	-10.281	N.2	1	RES1	0.000	
8	  O2	-15.867	14.373	-8.015	O.2	1	RES1	0.000	
9	  C3	-21.837	8.446	-7.949	C.2	1	RES1	0.000	
10	  N3	-20.093	13.179	-8.489	N.pl3	1	RES1	0.000	
11	  O3	-25.495	8.495	-7.606	O.3	1	RES1	0.000	
12	  C4	-23.182	8.826	-8.092	C.2	1	RES1	0.000	
13	  N4	-21.860	11.569	-8.689	N.2	1	RES1	0.000	
14	  C5	-22.991	11.148	-9.267	C.2	1	RES1	0.000	
15	  N5	-22.676	2.805	-4.423	N.3	1	RES1	0.000	
16	  C6	-23.022	12.953	-10.696	C.2	1	RES1	0.000	
17	  C7	-21.875	13.458	-10.146	C.2	1	RES1	0.000	
18	  C8	-21.272	12.752	-9.107	C.2	1	RES1	0.000	
19	  C9	-19.326	12.642	-7.431	C.2	1	RES1	0.000	
20	 C10	-19.928	11.940	-6.385	C.2	1	RES1	0.000	
21	 C11	-19.176	11.445	-5.335	C.2	1	RES1	0.000	
22	 C12	-17.805	11.646	-5.273	C.2	1	RES1	0.000	
23	 C13	-17.186	12.321	-6.282	C.2	1	RES1	0.000	
24	 C14	-17.930	12.857	-7.362	C.2	1	RES1	0.000	
25	 C15	-16.542	12.594	-9.897	C.3	1	RES1	0.000	
26	 C16	-15.304	11.751	-9.458	C.3	1	RES1	0.000	
27	 C17	-16.297	13.266	-11.231	C.3	1	RES1	0.000	
28	 C18	-24.135	8.042	-7.426	C.2	1	RES1	0.000	
29	 C19	-26.550	7.733	-7.065	C.3	1	RES1	0.000	
30	 C20	-26.762	6.531	-7.973	C.3	1	RES1	0.000	
31	 C21	-27.846	8.546	-7.026	C.3	1	RES1	0.000	
32	 C22	-23.793	6.962	-6.643	C.2	1	RES1	0.000	
33	 C23	-22.436	6.584	-6.507	C.2	1	RES1	0.000	
34	 C24	-22.076	5.382	-5.628	C.3	1	RES1	0.000	
35	 C25	-22.067	4.067	-6.451	C.3	1	RES1	0.000	
36	 C26	-21.735	2.860	-5.536	C.3	1	RES1	0.000	
37	 C53	-22.640	4.004	-3.573	C.3	1	RES1	0.000	
38	 C54	-22.994	5.242	-4.418	C.3	1	RES1	0.000	
@<TRIPOS>BOND
1 1 17 1
2 2 6 1
3 3 12 1
4 3 14 1
5 4 5 2
6 5 8 2
7 5 24 1
8 5 25 1
9 6 9 ar
10 6 33 ar
11 7 14 ar
12 7 16 ar
13 9 12 ar
14 10 18 1
15 10 19 1
16 13 14 ar
17 13 18 ar
18 15 37 1
19 16 17 ar
20 17 18 ar
21 19 20 ar
22 20 21 ar
23 21 22 ar
24 22 23 ar
25 23 24 ar
26 19 24 ar
27 25 26 1
28 25 27 1
29 11 28 1
30 12 28 ar
31 28 32 ar
32 11 29 1
33 29 30 1
34 29 31 1
35 32 33 ar
36 33 34 1
37 34 35 1
38 34 38 1
39 35 36 1
40 15 36 1
41 37 38 1
@<TRIPOS>SUBSTRUCTURE
1	RES1	1	GROUP	1 ****	RES
