# created with PyMOL 2.5.2
@<TRIPOS>MOLECULE
ALK_4MKC_TargetProtein
38 41 1                 
SMALL
USER_CHARGES
@<TRIPOS>ATOM
1	 CL1	-21.124	15.047	-10.495	Cl	1	RES1	0.000	
2	  C1	-20.145	7.008	-7.531	C.3	1	RES1	0.000	
3	  N1	-23.790	10.033	-9.059	N.pl3	1	RES1	0.000	
4	  O1	-17.941	14.460	-8.970	O.2	1	RES1	0.000	
5	  S1	-17.053	13.434	-8.412	S.O2	1	RES1	0.000	
6	  C2	-21.626	7.365	-7.538	C.2	1	RES1	0.000	
7	  N2	-23.713	12.034	-10.366	N.2	1	RES1	0.000	
8	  O2	-15.873	13.839	-7.685	O.2	1	RES1	0.000	
9	  C3	-22.041	8.468	-8.267	C.2	1	RES1	0.000	
10	  N3	-20.197	13.013	-8.403	N.pl3	1	RES1	0.000	
11	  O3	-25.646	8.617	-7.744	O.3	1	RES1	0.000	
12	  C4	-23.371	8.878	-8.328	C.2	1	RES1	0.000	
13	  N4	-22.054	11.537	-8.772	N.2	1	RES1	0.000	
14	  C5	-23.188	11.258	-9.429	C.2	1	RES1	0.000	
15	  N5	-21.178	3.956	-3.712	N.3	1	RES1	0.000	
16	  C6	-23.085	13.172	-10.658	C.2	1	RES1	0.000	
17	  C7	-21.879	13.557	-10.043	C.2	1	RES1	0.000	
18	  C8	-21.384	12.683	-9.070	C.2	1	RES1	0.000	
19	  C9	-19.449	12.348	-7.387	C.2	1	RES1	0.000	
20	 C10	-20.088	11.514	-6.406	C.2	1	RES1	0.000	
21	 C11	-19.389	10.854	-5.424	C.2	1	RES1	0.000	
22	 C12	-18.018	10.965	-5.347	C.2	1	RES1	0.000	
23	 C13	-17.338	11.767	-6.241	C.2	1	RES1	0.000	
24	 C14	-18.040	12.424	-7.257	C.2	1	RES1	0.000	
25	 C15	-16.583	12.327	-9.717	C.3	1	RES1	0.000	
26	 C16	-15.450	11.431	-9.270	C.3	1	RES1	0.000	
27	 C17	-16.193	13.068	-11.006	C.3	1	RES1	0.000	
28	 C18	-24.327	8.128	-7.646	C.2	1	RES1	0.000	
29	 C19	-26.791	7.908	-7.208	C.3	1	RES1	0.000	
30	 C20	-27.192	6.669	-8.025	C.3	1	RES1	0.000	
31	 C21	-27.940	8.788	-6.769	C.3	1	RES1	0.000	
32	 C22	-23.926	7.016	-6.893	C.2	1	RES1	0.000	
33	 C23	-22.572	6.567	-6.841	C.2	1	RES1	0.000	
34	 C24	-22.236	5.354	-6.027	C.3	1	RES1	0.000	
35	 C25	-22.987	5.288	-4.724	C.3	1	RES1	0.000	
36	 C26	-22.631	4.062	-3.923	C.3	1	RES1	0.000	
37	 C49	-20.451	3.922	-4.962	C.3	1	RES1	0.000	
38	 C50	-20.725	5.164	-5.838	C.3	1	RES1	0.000	
@<TRIPOS>BOND
1 1 17 1
2 2 6 1
3 3 12 1
4 3 14 1
5 4 5 2
6 5 8 2
7 5 24 1
8 5 25 1
9 6 9 ar
10 6 33 ar
11 7 14 ar
12 7 16 ar
13 9 12 ar
14 10 18 1
15 10 19 1
16 13 14 ar
17 13 18 ar
18 16 17 ar
19 17 18 ar
20 19 20 ar
21 20 21 ar
22 21 22 ar
23 22 23 ar
24 23 24 ar
25 19 24 ar
26 25 26 1
27 25 27 1
28 11 28 1
29 12 28 ar
30 28 32 ar
31 11 29 1
32 29 30 1
33 29 31 1
34 32 33 ar
35 33 34 1
36 34 35 1
37 34 38 1
38 35 36 1
39 15 36 1
40 15 37 1
41 37 38 1
@<TRIPOS>SUBSTRUCTURE
1	RES1	1	GROUP	1 ****	RES
