# created with PyMOL 2.5.2
@<TRIPOS>MOLECULE
ALK_4MKC_TargetProtein
38 41 1                 
SMALL
USER_CHARGES
@<TRIPOS>ATOM
1	 CL1	-21.051	14.987	-10.605	Cl	1	RES1	0.000	
2	  C1	-19.989	7.277	-7.066	C.3	1	RES1	0.000	
3	  N1	-23.657	9.972	-9.073	N.pl3	1	RES1	0.000	
4	  O1	-15.927	14.205	-7.871	O.2	1	RES1	0.000	
5	  S1	-17.122	13.691	-8.494	S.O2	1	RES1	0.000	
6	  C2	-21.457	7.518	-7.242	C.2	1	RES1	0.000	
7	  N2	-23.610	11.917	-10.470	N.2	1	RES1	0.000	
8	  O2	-18.137	14.646	-9.027	O.2	1	RES1	0.000	
9	  C3	-21.857	8.580	-8.039	C.2	1	RES1	0.000	
10	  N3	-20.131	13.062	-8.459	N.pl3	1	RES1	0.000	
11	  O3	-25.524	8.440	-7.893	O.3	1	RES1	0.000	
12	  C4	-23.222	8.882	-8.244	C.2	1	RES1	0.000	
13	  N4	-21.958	11.513	-8.832	N.2	1	RES1	0.000	
14	  C5	-23.087	11.170	-9.478	C.2	1	RES1	0.000	
15	  N5	-22.529	2.930	-4.430	N.3	1	RES1	0.000	
16	  C6	-22.963	13.074	-10.795	C.2	1	RES1	0.000	
17	  C7	-21.814	13.476	-10.154	C.2	1	RES1	0.000	
18	  C8	-21.310	12.647	-9.149	C.2	1	RES1	0.000	
19	  C9	-19.389	12.477	-7.398	C.2	1	RES1	0.000	
20	 C10	-19.986	11.715	-6.393	C.2	1	RES1	0.000	
21	 C11	-19.231	11.108	-5.341	C.2	1	RES1	0.000	
22	 C12	-17.884	11.287	-5.269	C.2	1	RES1	0.000	
23	 C13	-17.225	12.043	-6.265	C.2	1	RES1	0.000	
24	 C14	-17.984	12.657	-7.275	C.2	1	RES1	0.000	
25	 C15	-16.640	12.550	-9.811	C.3	1	RES1	0.000	
26	 C16	-15.450	11.736	-9.400	C.3	1	RES1	0.000	
27	 C17	-16.368	13.304	-11.131	C.3	1	RES1	0.000	
28	 C18	-24.170	8.065	-7.634	C.2	1	RES1	0.000	
29	 C19	-26.574	7.540	-7.455	C.3	1	RES1	0.000	
30	 C20	-27.843	8.370	-7.385	C.3	1	RES1	0.000	
31	 C21	-26.226	6.995	-6.068	C.3	1	RES1	0.000	
32	 C22	-23.783	6.999	-6.792	C.2	1	RES1	0.000	
33	 C23	-22.412	6.715	-6.619	C.2	1	RES1	0.000	
34	 C24	-22.039	5.539	-5.682	C.3	1	RES1	0.000	
35	 C25	-21.906	4.213	-6.484	C.3	1	RES1	0.000	
36	 C26	-21.545	3.066	-5.536	C.3	1	RES1	0.000	
37	 C51	-22.614	4.177	-3.645	C.3	1	RES1	0.000	
38	 C52	-23.001	5.375	-4.490	C.3	1	RES1	0.000	
@<TRIPOS>BOND
1 1 17 1
2 2 6 1
3 3 12 1
4 3 14 1
5 4 5 2
6 5 8 2
7 5 24 1
8 5 25 1
9 6 9 ar
10 6 33 ar
11 7 14 ar
12 7 16 ar
13 9 12 ar
14 10 18 1
15 10 19 1
16 13 14 ar
17 13 18 ar
18 15 37 1
19 16 17 ar
20 17 18 ar
21 19 20 ar
22 20 21 ar
23 21 22 ar
24 22 23 ar
25 23 24 ar
26 19 24 ar
27 25 26 1
28 25 27 1
29 11 28 1
30 12 28 ar
31 28 32 ar
32 11 29 1
33 29 30 1
34 29 31 1
35 32 33 ar
36 33 34 1
37 34 35 1
38 34 38 1
39 35 36 1
40 15 36 1
41 37 38 1
@<TRIPOS>SUBSTRUCTURE
1	RES1	1	GROUP	1 ****	RES
