# created with PyMOL 2.5.2
@<TRIPOS>MOLECULE
ALK_4MKC_TargetProtein
38 41 1                 
SMALL
USER_CHARGES
@<TRIPOS>ATOM
1	 CL1	-21.271	15.001	-10.686	Cl	1	RES1	0.000	
2	  C1	-19.964	7.025	-7.045	C.3	1	RES1	0.000	
3	  N1	-23.573	9.924	-8.918	N.pl3	1	RES1	0.000	
4	  O1	-15.809	14.276	-8.059	O.2	1	RES1	0.000	
5	  S1	-17.037	13.781	-8.674	S.O2	1	RES1	0.000	
6	  C2	-21.438	7.359	-7.151	C.2	1	RES1	0.000	
7	  N2	-23.592	11.792	-10.280	N.2	1	RES1	0.000	
8	  O2	-17.959	14.700	-9.310	O.2	1	RES1	0.000	
9	  C3	-21.830	8.470	-7.922	C.2	1	RES1	0.000	
10	  N3	-20.128	13.219	-8.456	N.pl3	1	RES1	0.000	
11	  O3	-25.485	8.489	-7.623	O.3	1	RES1	0.000	
12	  C4	-23.175	8.810	-8.099	C.2	1	RES1	0.000	
13	  N4	-21.870	11.591	-8.660	N.2	1	RES1	0.000	
14	  C5	-22.984	11.124	-9.301	C.2	1	RES1	0.000	
15	  N5	-22.700	2.756	-4.442	N.3	1	RES1	0.000	
16	  C6	-23.042	12.947	-10.687	C.2	1	RES1	0.000	
17	  C7	-21.901	13.492	-10.115	C.2	1	RES1	0.000	
18	  C8	-21.324	12.745	-9.078	C.2	1	RES1	0.000	
19	  C9	-19.324	12.723	-7.412	C.2	1	RES1	0.000	
20	 C10	-19.917	11.980	-6.349	C.2	1	RES1	0.000	
21	 C11	-19.116	11.498	-5.279	C.2	1	RES1	0.000	
22	 C12	-17.772	11.734	-5.264	C.2	1	RES1	0.000	
23	 C13	-17.156	12.422	-6.292	C.2	1	RES1	0.000	
24	 C14	-17.949	12.898	-7.356	C.2	1	RES1	0.000	
25	 C15	-16.597	12.512	-9.860	C.3	1	RES1	0.000	
26	 C16	-15.412	11.682	-9.347	C.3	1	RES1	0.000	
27	 C17	-16.264	13.096	-11.241	C.3	1	RES1	0.000	
28	 C18	-24.146	8.056	-7.427	C.2	1	RES1	0.000	
29	 C19	-26.546	7.708	-7.110	C.3	1	RES1	0.000	
30	 C20	-26.801	6.474	-7.996	C.3	1	RES1	0.000	
31	 C21	-27.792	8.577	-7.097	C.3	1	RES1	0.000	
32	 C22	-23.761	6.939	-6.640	C.2	1	RES1	0.000	
33	 C23	-22.445	6.581	-6.492	C.2	1	RES1	0.000	
34	 C24	-22.084	5.374	-5.650	C.3	1	RES1	0.000	
35	 C25	-22.063	4.072	-6.459	C.3	1	RES1	0.000	
36	 C26	-21.773	2.860	-5.591	C.3	1	RES1	0.000	
37	 C53	-22.638	3.996	-3.610	C.3	1	RES1	0.000	
38	 C54	-22.972	5.237	-4.414	C.3	1	RES1	0.000	
@<TRIPOS>BOND
1 1 17 1
2 2 6 1
3 3 12 1
4 3 14 1
5 4 5 2
6 5 8 2
7 5 24 1
8 5 25 1
9 6 9 ar
10 6 33 ar
11 7 14 ar
12 7 16 ar
13 9 12 ar
14 10 18 1
15 10 19 1
16 13 14 ar
17 13 18 ar
18 15 37 1
19 16 17 ar
20 17 18 ar
21 19 20 ar
22 20 21 ar
23 21 22 ar
24 22 23 ar
25 23 24 ar
26 19 24 ar
27 25 26 1
28 25 27 1
29 11 28 1
30 12 28 ar
31 28 32 ar
32 11 29 1
33 29 30 1
34 29 31 1
35 32 33 ar
36 33 34 1
37 34 35 1
38 34 38 1
39 35 36 1
40 15 36 1
41 37 38 1
@<TRIPOS>SUBSTRUCTURE
1	RES1	1	GROUP	1 ****	RES
