# created with PyMOL 2.5.2
@<TRIPOS>MOLECULE
EGFR_5X27_TargetProtein
35 40 1                 
SMALL
USER_CHARGES
@<TRIPOS>ATOM
1	  N3	-49.275	-2.027	-11.684	N.3	1	RES1	0.000	
2	  N4	-50.568	-0.808	-13.973	N.pl3	1	RES1	0.000	
3	  N5	-53.448	1.239	-18.453	N.pl3	1	RES1	0.000	
4	  N6	-54.167	1.919	-20.554	N.2	1	RES1	0.000	
5	  N7	-53.330	0.532	-23.864	N.2	1	RES1	0.000	
6	  N8	-52.049	-1.220	-24.970	N.pl3	1	RES1	0.000	
7	  N9	-52.135	-0.863	-22.607	N.2	1	RES1	0.000	
8	 N10	-52.671	0.046	-20.426	N.2	1	RES1	0.000	
9	 C14	-48.361	-2.092	-10.524	C.3	1	RES1	0.000	
10	 C15	-48.509	-1.823	-12.958	C.3	1	RES1	0.000	
11	 C16	-49.424	-1.777	-14.150	C.3	1	RES1	0.000	
12	 C17	-51.280	-0.300	-15.121	C.2	1	RES1	0.000	
13	 C18	-51.005	-0.740	-16.425	C.2	1	RES1	0.000	
14	 C19	-51.703	-0.282	-17.540	C.2	1	RES1	0.000	
15	 C20	-52.692	0.718	-17.375	C.2	1	RES1	0.000	
16	 C21	-53.427	1.038	-19.843	C.2	1	RES1	0.000	
17	 C22	-54.204	1.858	-21.919	C.2	1	RES1	0.000	
18	 C23	-53.473	0.878	-22.557	C.2	1	RES1	0.000	
19	 C24	-52.529	-0.510	-23.913	C.2	1	RES1	0.000	
20	 C25	-52.143	-0.896	-26.345	C.2	1	RES1	0.000	
21	 C26	-52.071	0.425	-26.860	C.2	1	RES1	0.000	
22	 C27	-52.119	0.677	-28.235	C.2	1	RES1	0.000	
23	 C28	-52.276	-0.378	-29.128	C.2	1	RES1	0.000	
24	 C29	-52.327	-1.678	-28.641	C.2	1	RES1	0.000	
25	 C30	-52.255	-1.939	-27.300	C.2	1	RES1	0.000	
26	 C31	-51.249	-1.946	-22.152	C.3	1	RES1	0.000	
27	 C32	-50.118	-1.515	-21.209	C.3	1	RES1	0.000	
28	 C33	-48.847	-2.114	-21.752	C.3	1	RES1	0.000	
29	 C34	-49.324	-3.296	-22.630	C.3	1	RES1	0.000	
30	 C35	-50.577	-2.739	-23.264	C.3	1	RES1	0.000	
31	 C36	-52.755	0.023	-21.758	C.2	1	RES1	0.000	
32	 C37	-52.976	1.164	-16.093	C.2	1	RES1	0.000	
33	 C38	-52.263	0.656	-14.994	C.2	1	RES1	0.000	
34	 C39	-51.252	-0.889	-12.660	C.3	1	RES1	0.000	
35	 C40	-50.262	-0.948	-11.490	C.3	1	RES1	0.000	
@<TRIPOS>BOND
1 1 35 1
2 8 16 ar
3 8 31 ar
4 1 9 1
5 1 10 1
6 10 11 1
7 2 11 1
8 2 12 1
9 12 13 ar
10 12 33 ar
11 13 14 ar
12 14 15 ar
13 3 15 1
14 15 32 ar
15 3 16 1
16 4 16 ar
17 4 17 ar
18 17 18 ar
19 5 18 ar
20 18 31 ar
21 5 19 ar
22 6 19 1
23 7 19 ar
24 6 20 1
25 20 21 ar
26 20 25 ar
27 21 22 ar
28 22 23 ar
29 23 24 ar
30 24 25 ar
31 7 26 1
32 26 27 1
33 26 30 1
34 27 28 1
35 28 29 1
36 29 30 1
37 7 31 ar
38 32 33 ar
39 2 34 1
40 34 35 1
@<TRIPOS>SUBSTRUCTURE
1	RES1	1	GROUP	1 ****	RES
