# created with PyMOL 2.5.2
@<TRIPOS>MOLECULE
EGFR_5X27_TargetProtein
35 40 1                 
SMALL
USER_CHARGES
@<TRIPOS>ATOM
1	  N3	-48.973	-1.672	-11.734	N.3	1	RES1	0.000	
2	  N4	-50.595	-0.825	-13.941	N.pl3	1	RES1	0.000	
3	  N5	-53.475	1.184	-18.473	N.pl3	1	RES1	0.000	
4	  N6	-54.205	1.873	-20.555	N.2	1	RES1	0.000	
5	  N7	-53.310	0.488	-23.880	N.2	1	RES1	0.000	
6	  N8	-51.997	-1.214	-24.970	N.pl3	1	RES1	0.000	
7	  N9	-52.100	-0.845	-22.606	N.2	1	RES1	0.000	
8	 N10	-52.700	0.022	-20.406	N.2	1	RES1	0.000	
9	 C14	-48.618	-2.490	-10.533	C.3	1	RES1	0.000	
10	 C15	-49.052	-2.483	-12.943	C.3	1	RES1	0.000	
11	 C16	-49.399	-1.664	-14.180	C.3	1	RES1	0.000	
12	 C17	-51.329	-0.323	-15.090	C.2	1	RES1	0.000	
13	 C18	-51.041	-0.763	-16.388	C.2	1	RES1	0.000	
14	 C19	-51.714	-0.266	-17.513	C.2	1	RES1	0.000	
15	 C20	-52.739	0.672	-17.399	C.2	1	RES1	0.000	
16	 C21	-53.428	1.015	-19.858	C.2	1	RES1	0.000	
17	 C22	-54.249	1.795	-21.927	C.2	1	RES1	0.000	
18	 C23	-53.480	0.827	-22.541	C.2	1	RES1	0.000	
19	 C24	-52.504	-0.505	-23.901	C.2	1	RES1	0.000	
20	 C25	-52.091	-0.883	-26.339	C.2	1	RES1	0.000	
21	 C26	-52.042	0.431	-26.864	C.2	1	RES1	0.000	
22	 C27	-52.157	0.689	-28.253	C.2	1	RES1	0.000	
23	 C28	-52.332	-0.379	-29.103	C.2	1	RES1	0.000	
24	 C29	-52.379	-1.680	-28.622	C.2	1	RES1	0.000	
25	 C30	-52.284	-1.921	-27.293	C.2	1	RES1	0.000	
26	 C31	-51.188	-1.921	-22.144	C.3	1	RES1	0.000	
27	 C32	-50.060	-1.453	-21.207	C.3	1	RES1	0.000	
28	 C33	-48.789	-2.055	-21.787	C.3	1	RES1	0.000	
29	 C34	-49.254	-3.207	-22.645	C.3	1	RES1	0.000	
30	 C35	-50.524	-2.701	-23.251	C.3	1	RES1	0.000	
31	 C36	-52.733	0.010	-21.761	C.2	1	RES1	0.000	
32	 C37	-53.052	1.072	-16.083	C.2	1	RES1	0.000	
33	 C38	-52.352	0.604	-14.978	C.2	1	RES1	0.000	
34	 C39	-50.671	-0.071	-12.698	C.3	1	RES1	0.000	
35	 C40	-50.250	-0.969	-11.502	C.3	1	RES1	0.000	
@<TRIPOS>BOND
1 1 35 1
2 8 16 ar
3 8 31 ar
4 1 9 1
5 1 10 1
6 10 11 1
7 2 11 1
8 2 12 1
9 12 13 ar
10 12 33 ar
11 13 14 ar
12 14 15 ar
13 3 15 1
14 15 32 ar
15 3 16 1
16 4 16 ar
17 4 17 ar
18 17 18 ar
19 5 18 ar
20 18 31 ar
21 5 19 ar
22 6 19 1
23 7 19 ar
24 6 20 1
25 20 21 ar
26 20 25 ar
27 21 22 ar
28 22 23 ar
29 23 24 ar
30 24 25 ar
31 7 26 1
32 26 27 1
33 26 30 1
34 27 28 1
35 28 29 1
36 29 30 1
37 7 31 ar
38 32 33 ar
39 2 34 1
40 34 35 1
@<TRIPOS>SUBSTRUCTURE
1	RES1	1	GROUP	1 ****	RES
