# created with PyMOL 2.5.2
@<TRIPOS>MOLECULE
EGFR_5X27_TargetProtein
35 40 1                 
SMALL
USER_CHARGES
@<TRIPOS>ATOM
1	  N3	-49.304	-1.968	-11.607	N.3	1	RES1	0.000	
2	  N4	-50.553	-0.797	-13.970	N.pl3	1	RES1	0.000	
3	  N5	-53.475	1.182	-18.448	N.pl3	1	RES1	0.000	
4	  N6	-54.207	1.892	-20.554	N.2	1	RES1	0.000	
5	  N7	-53.318	0.525	-23.875	N.2	1	RES1	0.000	
6	  N8	-52.009	-1.212	-24.979	N.pl3	1	RES1	0.000	
7	  N9	-52.131	-0.862	-22.612	N.2	1	RES1	0.000	
8	 N10	-52.701	0.039	-20.402	N.2	1	RES1	0.000	
9	 C14	-48.277	-2.058	-10.569	C.3	1	RES1	0.000	
10	 C15	-49.959	-0.636	-11.567	C.3	1	RES1	0.000	
11	 C16	-51.052	-0.472	-12.620	C.3	1	RES1	0.000	
12	 C17	-51.260	-0.321	-15.104	C.2	1	RES1	0.000	
13	 C18	-52.304	0.623	-14.994	C.2	1	RES1	0.000	
14	 C19	-53.002	1.099	-16.077	C.2	1	RES1	0.000	
15	 C20	-52.727	0.655	-17.368	C.2	1	RES1	0.000	
16	 C21	-53.440	1.008	-19.858	C.2	1	RES1	0.000	
17	 C22	-54.230	1.821	-21.918	C.2	1	RES1	0.000	
18	 C23	-53.474	0.830	-22.566	C.2	1	RES1	0.000	
19	 C24	-52.505	-0.514	-23.896	C.2	1	RES1	0.000	
20	 C25	-52.107	-0.853	-26.361	C.2	1	RES1	0.000	
21	 C26	-52.047	0.435	-26.861	C.2	1	RES1	0.000	
22	 C27	-52.148	0.712	-28.229	C.2	1	RES1	0.000	
23	 C28	-52.293	-0.338	-29.135	C.2	1	RES1	0.000	
24	 C29	-52.351	-1.654	-28.669	C.2	1	RES1	0.000	
25	 C30	-52.230	-1.887	-27.304	C.2	1	RES1	0.000	
26	 C31	-51.225	-1.943	-22.168	C.3	1	RES1	0.000	
27	 C32	-50.118	-1.522	-21.228	C.3	1	RES1	0.000	
28	 C33	-49.032	-2.538	-21.444	C.3	1	RES1	0.000	
29	 C34	-49.078	-2.800	-22.927	C.3	1	RES1	0.000	
30	 C35	-50.549	-2.752	-23.317	C.3	1	RES1	0.000	
31	 C36	-52.756	-0.003	-21.769	C.2	1	RES1	0.000	
32	 C37	-51.708	-0.306	-17.528	C.2	1	RES1	0.000	
33	 C38	-50.991	-0.770	-16.425	C.2	1	RES1	0.000	
34	 C39	-49.772	-2.063	-14.063	C.3	1	RES1	0.000	
35	 C40	-48.728	-2.162	-12.952	C.3	1	RES1	0.000	
@<TRIPOS>BOND
1 1 35 1
2 8 16 ar
3 8 31 ar
4 1 9 1
5 1 10 1
6 10 11 1
7 2 11 1
8 2 12 1
9 12 13 ar
10 12 33 ar
11 13 14 ar
12 14 15 ar
13 3 15 1
14 15 32 ar
15 3 16 1
16 4 16 ar
17 4 17 ar
18 17 18 ar
19 5 18 ar
20 18 31 ar
21 5 19 ar
22 6 19 1
23 7 19 ar
24 6 20 1
25 20 21 ar
26 20 25 ar
27 21 22 ar
28 22 23 ar
29 23 24 ar
30 24 25 ar
31 7 26 1
32 26 27 1
33 26 30 1
34 27 28 1
35 28 29 1
36 29 30 1
37 7 31 ar
38 32 33 ar
39 2 34 1
40 34 35 1
@<TRIPOS>SUBSTRUCTURE
1	RES1	1	GROUP	1 ****	RES
