# created with PyMOL 2.5.2
@<TRIPOS>MOLECULE
BRD4_6DL2_TargetProtein
22 25 1                 
SMALL
USER_CHARGES
@<TRIPOS>ATOM
1	  C1	11.420	3.567	-2.252	C.3	1	RES1	0.000	
2	  N1	13.557	3.951	-1.117	N.2	1	RES1	0.000	
3	  O1	12.061	5.374	2.792	O.3	1	RES1	0.000	
4	  S1	9.303	5.453	-0.979	S.2	1	RES1	0.000	
5	  C2	12.254	4.126	-1.174	C.2	1	RES1	0.000	
6	  N2	14.022	4.536	0.026	N.2	1	RES1	0.000	
7	  C3	12.990	5.101	0.646	C.2	1	RES1	0.000	
8	  C4	13.099	5.841	1.907	C.3	1	RES1	0.000	
9	  C5	10.898	6.172	2.706	C.3	1	RES1	0.000	
10	  C6	10.104	6.023	1.438	C.2	1	RES1	0.000	
11	  C7	10.556	5.429	0.249	C.2	1	RES1	0.000	
12	  N7	11.821	4.919	-0.097	N.2	1	RES1	0.000	
13	  C8	8.199	6.202	0.059	C.2	1	RES1	0.000	
14	  C9	6.826	6.476	-0.434	C.3	1	RES1	0.000	
15	 C27	8.747	6.515	1.322	C.2	1	RES1	0.000	
16	 C28	7.968	7.163	2.413	C.3	1	RES1	0.000	
17	 C29	7.616	6.101	3.422	C.2	1	RES1	0.000	
18	 C30	6.951	4.915	3.083	C.2	1	RES1	0.000	
19	 C31	6.640	3.957	4.030	C.2	1	RES1	0.000	
20	 C32	6.991	4.153	5.371	C.2	1	RES1	0.000	
21	 C33	7.685	5.317	5.748	C.2	1	RES1	0.000	
22	 C34	7.971	6.285	4.784	C.2	1	RES1	0.000	
@<TRIPOS>BOND
1 1 5 1
2 2 5 ar
3 2 6 ar
4 3 8 1
5 3 9 1
6 4 11 ar
7 4 13 ar
8 5 12 ar
9 6 7 ar
10 7 8 1
11 7 12 ar
12 9 10 1
13 10 11 ar
14 11 12 1
15 13 14 1
16 10 15 ar
17 13 15 ar
18 15 16 1
19 16 17 1
20 17 18 ar
21 17 22 ar
22 18 19 ar
23 19 20 ar
24 20 21 ar
25 21 22 ar
@<TRIPOS>SUBSTRUCTURE
1	RES1	1	GROUP	1 ****	RES
