# created with PyMOL 2.5.2
@<TRIPOS>MOLECULE
EGFR_5X27_TargetProtein
35 40 1                 
SMALL
USER_CHARGES
@<TRIPOS>ATOM
1	  N3	-49.310	-2.031	-11.662	N.3	1	RES1	0.000	
2	  N4	-50.555	-0.821	-13.950	N.pl3	1	RES1	0.000	
3	  N5	-53.421	1.216	-18.471	N.pl3	1	RES1	0.000	
4	  N6	-54.153	1.924	-20.568	N.2	1	RES1	0.000	
5	  N7	-53.304	0.535	-23.871	N.2	1	RES1	0.000	
6	  N8	-51.998	-1.194	-24.996	N.pl3	1	RES1	0.000	
7	  N9	-52.117	-0.862	-22.619	N.2	1	RES1	0.000	
8	 N10	-52.662	0.067	-20.428	N.2	1	RES1	0.000	
9	 C15	-48.387	-2.114	-10.516	C.3	1	RES1	0.000	
10	 C16	-48.555	-1.833	-12.927	C.3	1	RES1	0.000	
11	 C17	-49.469	-1.805	-14.148	C.3	1	RES1	0.000	
12	 C18	-51.289	-0.331	-15.106	C.2	1	RES1	0.000	
13	 C19	-52.259	0.660	-14.992	C.2	1	RES1	0.000	
14	 C20	-52.945	1.157	-16.104	C.2	1	RES1	0.000	
15	 C21	-52.673	0.695	-17.401	C.2	1	RES1	0.000	
16	 C22	-53.395	1.051	-19.864	C.2	1	RES1	0.000	
17	 C23	-54.178	1.855	-21.909	C.2	1	RES1	0.000	
18	 C24	-53.450	0.868	-22.562	C.2	1	RES1	0.000	
19	 C25	-52.460	-0.494	-23.925	C.2	1	RES1	0.000	
20	 C26	-52.130	-0.883	-26.378	C.2	1	RES1	0.000	
21	 C27	-52.098	0.411	-26.904	C.2	1	RES1	0.000	
22	 C28	-52.207	0.659	-28.251	C.2	1	RES1	0.000	
23	 C29	-52.378	-0.413	-29.140	C.2	1	RES1	0.000	
24	 C30	-52.440	-1.691	-28.646	C.2	1	RES1	0.000	
25	 C31	-52.317	-1.937	-27.278	C.2	1	RES1	0.000	
26	 C32	-51.227	-1.939	-22.164	C.3	1	RES1	0.000	
27	 C33	-50.132	-1.504	-21.169	C.3	1	RES1	0.000	
28	 C34	-49.043	-2.515	-21.374	C.3	1	RES1	0.000	
29	 C35	-49.043	-2.764	-22.878	C.3	1	RES1	0.000	
30	 C36	-50.489	-2.692	-23.281	C.3	1	RES1	0.000	
31	 C37	-52.730	0.019	-21.778	C.2	1	RES1	0.000	
32	 C38	-51.688	-0.317	-17.531	C.2	1	RES1	0.000	
33	 C39	-51.017	-0.790	-16.406	C.2	1	RES1	0.000	
34	 C40	-51.262	-0.872	-12.682	C.3	1	RES1	0.000	
35	 C41	-50.285	-0.924	-11.487	C.3	1	RES1	0.000	
@<TRIPOS>BOND
1 1 35 1
2 2 34 1
3 8 16 ar
4 8 31 ar
5 1 9 1
6 1 10 1
7 10 11 1
8 2 11 1
9 2 12 1
10 12 13 ar
11 12 33 ar
12 13 14 ar
13 14 15 ar
14 3 15 1
15 15 32 ar
16 3 16 1
17 4 16 ar
18 4 17 ar
19 17 18 ar
20 5 18 ar
21 18 31 ar
22 5 19 ar
23 6 19 1
24 7 19 ar
25 6 20 1
26 20 21 ar
27 20 25 ar
28 21 22 ar
29 22 23 ar
30 23 24 ar
31 24 25 ar
32 7 26 1
33 26 27 1
34 26 30 1
35 27 28 1
36 28 29 1
37 29 30 1
38 7 31 ar
39 32 33 ar
40 34 35 1
@<TRIPOS>SUBSTRUCTURE
1	RES1	1	GROUP	1 ****	RES
