# created with PyMOL 2.5.2
@<TRIPOS>MOLECULE
EGFR_5X27_TargetProtein
35 40 1                 
SMALL
USER_CHARGES
@<TRIPOS>ATOM
1	  N3	-48.985	-1.636	-11.679	N.3	1	RES1	0.000	
2	  N4	-50.611	-0.838	-13.952	N.pl3	1	RES1	0.000	
3	  N5	-53.471	1.230	-18.453	N.pl3	1	RES1	0.000	
4	  N6	-54.173	1.938	-20.577	N.2	1	RES1	0.000	
5	  N7	-53.321	0.518	-23.896	N.2	1	RES1	0.000	
6	  N8	-52.018	-1.197	-24.976	N.pl3	1	RES1	0.000	
7	  N9	-52.125	-0.855	-22.619	N.2	1	RES1	0.000	
8	 N10	-52.690	0.066	-20.428	N.2	1	RES1	0.000	
9	 C15	-48.567	-2.549	-10.600	C.3	1	RES1	0.000	
10	 C16	-50.451	-1.344	-11.518	C.3	1	RES1	0.000	
11	 C17	-50.939	-0.357	-12.616	C.3	1	RES1	0.000	
12	 C18	-51.312	-0.309	-15.101	C.2	1	RES1	0.000	
13	 C19	-51.092	-0.830	-16.397	C.2	1	RES1	0.000	
14	 C20	-51.781	-0.346	-17.496	C.2	1	RES1	0.000	
15	 C21	-52.728	0.684	-17.388	C.2	1	RES1	0.000	
16	 C22	-53.406	1.037	-19.866	C.2	1	RES1	0.000	
17	 C23	-54.213	1.859	-21.914	C.2	1	RES1	0.000	
18	 C24	-53.484	0.824	-22.554	C.2	1	RES1	0.000	
19	 C25	-52.485	-0.506	-23.909	C.2	1	RES1	0.000	
20	 C26	-52.130	-0.896	-26.354	C.2	1	RES1	0.000	
21	 C27	-52.084	0.408	-26.888	C.2	1	RES1	0.000	
22	 C28	-52.184	0.646	-28.263	C.2	1	RES1	0.000	
23	 C29	-52.335	-0.419	-29.128	C.2	1	RES1	0.000	
24	 C30	-52.344	-1.712	-28.639	C.2	1	RES1	0.000	
25	 C31	-52.251	-1.951	-27.267	C.2	1	RES1	0.000	
26	 C32	-51.229	-1.936	-22.152	C.3	1	RES1	0.000	
27	 C33	-50.126	-1.508	-21.189	C.3	1	RES1	0.000	
28	 C34	-49.030	-2.518	-21.375	C.3	1	RES1	0.000	
29	 C35	-49.047	-2.753	-22.875	C.3	1	RES1	0.000	
30	 C36	-50.522	-2.729	-23.279	C.3	1	RES1	0.000	
31	 C37	-52.743	0.031	-21.763	C.2	1	RES1	0.000	
32	 C38	-52.945	1.179	-16.101	C.2	1	RES1	0.000	
33	 C39	-52.271	0.707	-14.991	C.2	1	RES1	0.000	
34	 C40	-49.217	-1.290	-14.147	C.3	1	RES1	0.000	
35	 C41	-48.754	-2.252	-13.021	C.3	1	RES1	0.000	
@<TRIPOS>BOND
1 1 35 1
2 2 34 1
3 8 16 ar
4 8 31 ar
5 1 9 1
6 1 10 1
7 10 11 1
8 2 11 1
9 2 12 1
10 12 13 ar
11 12 33 ar
12 13 14 ar
13 14 15 ar
14 3 15 1
15 15 32 ar
16 3 16 1
17 4 16 ar
18 4 17 ar
19 17 18 ar
20 5 18 ar
21 18 31 ar
22 5 19 ar
23 6 19 1
24 7 19 ar
25 6 20 1
26 20 21 ar
27 20 25 ar
28 21 22 ar
29 22 23 ar
30 23 24 ar
31 24 25 ar
32 7 26 1
33 26 27 1
34 26 30 1
35 27 28 1
36 28 29 1
37 29 30 1
38 7 31 ar
39 32 33 ar
40 34 35 1
@<TRIPOS>SUBSTRUCTURE
1	RES1	1	GROUP	1 ****	RES
