# created with PyMOL 2.5.2
@<TRIPOS>MOLECULE
EGFR_5X27_TargetProtein
35 40 1                 
SMALL
USER_CHARGES
@<TRIPOS>ATOM
1	  N3	-49.054	-1.612	-11.630	N.3	1	RES1	0.000	
2	  N4	-50.594	-0.853	-13.967	N.pl3	1	RES1	0.000	
3	  N5	-53.449	1.195	-18.471	N.pl3	1	RES1	0.000	
4	  N6	-54.167	1.909	-20.546	N.2	1	RES1	0.000	
5	  N7	-53.276	0.551	-23.892	N.2	1	RES1	0.000	
6	  N8	-51.989	-1.178	-24.988	N.pl3	1	RES1	0.000	
7	  N9	-52.072	-0.824	-22.617	N.2	1	RES1	0.000	
8	 N10	-52.654	0.038	-20.419	N.2	1	RES1	0.000	
9	 C15	-48.664	-2.503	-10.515	C.3	1	RES1	0.000	
10	 C16	-50.517	-1.274	-11.504	C.3	1	RES1	0.000	
11	 C17	-50.958	-0.318	-12.618	C.3	1	RES1	0.000	
12	 C18	-51.282	-0.352	-15.098	C.2	1	RES1	0.000	
13	 C19	-51.092	-0.872	-16.400	C.2	1	RES1	0.000	
14	 C20	-51.761	-0.366	-17.498	C.2	1	RES1	0.000	
15	 C21	-52.721	0.653	-17.384	C.2	1	RES1	0.000	
16	 C22	-53.392	1.041	-19.864	C.2	1	RES1	0.000	
17	 C23	-54.173	1.832	-21.916	C.2	1	RES1	0.000	
18	 C24	-53.447	0.851	-22.559	C.2	1	RES1	0.000	
19	 C25	-52.432	-0.483	-23.915	C.2	1	RES1	0.000	
20	 C26	-52.124	-0.872	-26.379	C.2	1	RES1	0.000	
21	 C27	-52.082	0.416	-26.911	C.2	1	RES1	0.000	
22	 C28	-52.256	0.651	-28.278	C.2	1	RES1	0.000	
23	 C29	-52.443	-0.410	-29.153	C.2	1	RES1	0.000	
24	 C30	-52.492	-1.716	-28.661	C.2	1	RES1	0.000	
25	 C31	-52.326	-1.930	-27.264	C.2	1	RES1	0.000	
26	 C32	-51.184	-1.914	-22.170	C.3	1	RES1	0.000	
27	 C33	-50.059	-1.487	-21.209	C.3	1	RES1	0.000	
28	 C34	-48.769	-2.101	-21.753	C.3	1	RES1	0.000	
29	 C35	-49.224	-3.253	-22.621	C.3	1	RES1	0.000	
30	 C36	-50.505	-2.720	-23.281	C.3	1	RES1	0.000	
31	 C37	-52.708	0.042	-21.763	C.2	1	RES1	0.000	
32	 C38	-52.927	1.152	-16.123	C.2	1	RES1	0.000	
33	 C39	-52.240	0.675	-15.000	C.2	1	RES1	0.000	
34	 C40	-49.205	-1.326	-14.088	C.3	1	RES1	0.000	
35	 C41	-48.825	-2.248	-12.912	C.3	1	RES1	0.000	
@<TRIPOS>BOND
1 1 35 1
2 2 34 1
3 8 16 ar
4 8 31 ar
5 1 9 1
6 1 10 1
7 10 11 1
8 2 11 1
9 2 12 1
10 12 13 ar
11 12 33 ar
12 13 14 ar
13 14 15 ar
14 3 15 1
15 15 32 ar
16 3 16 1
17 4 16 ar
18 4 17 ar
19 17 18 ar
20 5 18 ar
21 18 31 ar
22 5 19 ar
23 6 19 1
24 7 19 ar
25 6 20 1
26 20 21 ar
27 20 25 ar
28 21 22 ar
29 22 23 ar
30 23 24 ar
31 24 25 ar
32 7 26 1
33 26 27 1
34 26 30 1
35 27 28 1
36 28 29 1
37 29 30 1
38 7 31 ar
39 32 33 ar
40 34 35 1
@<TRIPOS>SUBSTRUCTURE
1	RES1	1	GROUP	1 ****	RES
