# created with PyMOL 2.5.2
@<TRIPOS>MOLECULE
EGFR_5X27_TargetProtein
35 40 1                 
SMALL
USER_CHARGES
@<TRIPOS>ATOM
1	  N2	-49.261	-2.088	-11.756	N.3	1	RES1	0.000	
2	  N3	-50.589	-0.784	-13.939	N.pl3	1	RES1	0.000	
3	  N4	-53.432	1.258	-18.450	N.pl3	1	RES1	0.000	
4	  N5	-54.159	1.953	-20.587	N.2	1	RES1	0.000	
5	  N6	-53.292	0.523	-23.872	N.2	1	RES1	0.000	
6	  C7	-48.322	-2.224	-10.616	C.3	1	RES1	0.000	
7	  N7	-52.037	-1.215	-24.958	N.pl3	1	RES1	0.000	
8	  C8	-50.278	-1.077	-11.492	C.3	1	RES1	0.000	
9	  N8	-52.115	-0.846	-22.608	N.2	1	RES1	0.000	
10	  C9	-51.301	-0.968	-12.676	C.3	1	RES1	0.000	
11	  N9	-52.655	0.094	-20.395	N.2	1	RES1	0.000	
12	 C10	-51.331	-0.287	-15.078	C.2	1	RES1	0.000	
13	 C11	-51.052	-0.735	-16.398	C.2	1	RES1	0.000	
14	 C12	-51.711	-0.239	-17.491	C.2	1	RES1	0.000	
15	 C13	-52.701	0.751	-17.373	C.2	1	RES1	0.000	
16	 C14	-53.384	1.086	-19.854	C.2	1	RES1	0.000	
17	 C15	-54.191	1.856	-21.927	C.2	1	RES1	0.000	
18	 C16	-53.465	0.878	-22.571	C.2	1	RES1	0.000	
19	 C17	-52.470	-0.513	-23.900	C.2	1	RES1	0.000	
20	 C18	-52.132	-0.922	-26.369	C.2	1	RES1	0.000	
21	 C19	-52.032	0.402	-26.876	C.2	1	RES1	0.000	
22	 C20	-52.114	0.605	-28.257	C.2	1	RES1	0.000	
23	 C21	-52.318	-0.448	-29.124	C.2	1	RES1	0.000	
24	 C22	-52.442	-1.756	-28.615	C.2	1	RES1	0.000	
25	 C23	-52.332	-1.965	-27.261	C.2	1	RES1	0.000	
26	 C24	-51.210	-1.920	-22.137	C.3	1	RES1	0.000	
27	 C25	-50.109	-1.482	-21.172	C.3	1	RES1	0.000	
28	 C26	-48.837	-2.071	-21.723	C.3	1	RES1	0.000	
29	 C27	-49.266	-3.212	-22.593	C.3	1	RES1	0.000	
30	 C28	-50.511	-2.676	-23.266	C.3	1	RES1	0.000	
31	 C29	-52.727	0.031	-21.749	C.2	1	RES1	0.000	
32	 C30	-52.998	1.203	-16.099	C.2	1	RES1	0.000	
33	 C31	-52.312	0.709	-14.983	C.2	1	RES1	0.000	
34	 C32	-49.458	-1.713	-14.213	C.3	1	RES1	0.000	
35	 C33	-48.523	-1.811	-12.992	C.3	1	RES1	0.000	
@<TRIPOS>BOND
1 1 6 1
2 1 8 1
3 1 35 1
4 2 10 1
5 2 34 1
6 8 10 1
7 2 12 1
8 12 13 ar
9 12 33 ar
10 13 14 ar
11 14 15 ar
12 3 15 1
13 15 32 ar
14 3 16 1
15 4 16 ar
16 11 16 ar
17 4 17 ar
18 17 18 ar
19 5 18 ar
20 18 31 ar
21 5 19 ar
22 7 19 1
23 9 19 ar
24 7 20 1
25 20 21 ar
26 20 25 ar
27 21 22 ar
28 22 23 ar
29 23 24 ar
30 24 25 ar
31 9 26 1
32 26 27 1
33 26 30 1
34 27 28 1
35 28 29 1
36 29 30 1
37 9 31 ar
38 11 31 ar
39 32 33 ar
40 34 35 1
@<TRIPOS>SUBSTRUCTURE
1	RES1	1	GROUP	1 ****	RES
