# created with PyMOL 2.5.2
@<TRIPOS>MOLECULE
EGFR_5X27_TargetProtein
35 40 1                 
SMALL
USER_CHARGES
@<TRIPOS>ATOM
1	  N2	-48.767	-1.660	-11.950	N.3	1	RES1	0.000	
2	  N3	-50.488	-0.876	-14.126	N.pl3	1	RES1	0.000	
3	  N4	-53.540	1.027	-18.560	N.pl3	1	RES1	0.000	
4	  N5	-54.392	1.606	-20.652	N.2	1	RES1	0.000	
5	  N6	-53.332	0.420	-23.980	N.2	1	RES1	0.000	
6	  C7	-48.373	-2.491	-10.794	C.3	1	RES1	0.000	
7	  N7	-51.783	-1.034	-25.142	N.pl3	1	RES1	0.000	
8	  C8	-50.056	-1.024	-11.683	C.3	1	RES1	0.000	
9	  N8	-51.967	-0.783	-22.754	N.2	1	RES1	0.000	
10	  C9	-50.509	-0.144	-12.872	C.3	1	RES1	0.000	
11	  N9	-52.613	0.025	-20.526	N.2	1	RES1	0.000	
12	 C10	-51.236	-0.396	-15.271	C.2	1	RES1	0.000	
13	 C11	-52.321	0.526	-15.097	C.2	1	RES1	0.000	
14	 C12	-53.045	0.970	-16.207	C.2	1	RES1	0.000	
15	 C13	-52.733	0.559	-17.508	C.2	1	RES1	0.000	
16	 C14	-53.485	0.854	-19.964	C.2	1	RES1	0.000	
17	 C15	-54.440	1.540	-22.015	C.2	1	RES1	0.000	
18	 C16	-53.546	0.692	-22.666	C.2	1	RES1	0.000	
19	 C17	-52.381	-0.479	-24.042	C.2	1	RES1	0.000	
20	 C18	-51.982	-0.687	-26.512	C.2	1	RES1	0.000	
21	 C19	-52.134	0.618	-26.981	C.2	1	RES1	0.000	
22	 C20	-52.311	0.882	-28.347	C.2	1	RES1	0.000	
23	 C21	-52.316	-0.190	-29.253	C.2	1	RES1	0.000	
24	 C22	-52.156	-1.479	-28.827	C.2	1	RES1	0.000	
25	 C23	-51.994	-1.736	-27.437	C.2	1	RES1	0.000	
26	 C24	-50.939	-1.782	-22.345	C.3	1	RES1	0.000	
27	 C25	-51.447	-2.860	-21.391	C.3	1	RES1	0.000	
28	 C26	-50.442	-2.916	-20.272	C.3	1	RES1	0.000	
29	 C27	-49.168	-2.300	-20.812	C.3	1	RES1	0.000	
30	 C28	-49.708	-1.198	-21.687	C.3	1	RES1	0.000	
31	 C29	-52.669	-0.021	-21.878	C.2	1	RES1	0.000	
32	 C30	-51.678	-0.332	-17.665	C.2	1	RES1	0.000	
33	 C31	-50.957	-0.780	-16.558	C.2	1	RES1	0.000	
34	 C32	-49.271	-1.668	-14.424	C.3	1	RES1	0.000	
35	 C33	-48.889	-2.489	-13.169	C.3	1	RES1	0.000	
@<TRIPOS>BOND
1 1 6 1
2 1 8 1
3 1 35 1
4 2 10 1
5 2 34 1
6 8 10 1
7 2 12 1
8 12 13 ar
9 12 33 ar
10 13 14 ar
11 14 15 ar
12 3 15 1
13 15 32 ar
14 3 16 1
15 4 16 ar
16 11 16 ar
17 4 17 ar
18 17 18 ar
19 5 18 ar
20 18 31 ar
21 5 19 ar
22 7 19 1
23 9 19 ar
24 7 20 1
25 20 21 ar
26 20 25 ar
27 21 22 ar
28 22 23 ar
29 23 24 ar
30 24 25 ar
31 9 26 1
32 26 27 1
33 26 30 1
34 27 28 1
35 28 29 1
36 29 30 1
37 9 31 ar
38 11 31 ar
39 32 33 ar
40 34 35 1
@<TRIPOS>SUBSTRUCTURE
1	RES1	1	GROUP	1 ****	RES
