# created with PyMOL 2.5.2
@<TRIPOS>MOLECULE
EGFR_5X27_TargetProtein
35 40 1                 
SMALL
USER_CHARGES
@<TRIPOS>ATOM
1	  N2	-49.174	-2.074	-11.818	N.3	1	RES1	0.000	
2	  N3	-50.490	-0.914	-14.142	N.pl3	1	RES1	0.000	
3	  N4	-53.485	1.077	-18.590	N.pl3	1	RES1	0.000	
4	  N5	-54.254	1.765	-20.661	N.2	1	RES1	0.000	
5	  N6	-53.281	0.507	-24.004	N.2	1	RES1	0.000	
6	  C7	-48.148	-2.160	-10.796	C.3	1	RES1	0.000	
7	  N7	-51.856	-1.090	-25.128	N.pl3	1	RES1	0.000	
8	  C8	-48.628	-2.230	-13.178	C.3	1	RES1	0.000	
9	  N8	-51.911	-0.760	-22.756	N.2	1	RES1	0.000	
10	  C9	-49.684	-2.160	-14.279	C.3	1	RES1	0.000	
11	  N9	-52.585	0.052	-20.547	N.2	1	RES1	0.000	
12	 C10	-51.249	-0.438	-15.271	C.2	1	RES1	0.000	
13	 C11	-52.314	0.476	-15.130	C.2	1	RES1	0.000	
14	 C12	-53.016	0.959	-16.205	C.2	1	RES1	0.000	
15	 C13	-52.724	0.557	-17.532	C.2	1	RES1	0.000	
16	 C14	-53.434	0.942	-19.953	C.2	1	RES1	0.000	
17	 C15	-54.279	1.693	-22.017	C.2	1	RES1	0.000	
18	 C16	-53.470	0.793	-22.670	C.2	1	RES1	0.000	
19	 C17	-52.365	-0.449	-24.048	C.2	1	RES1	0.000	
20	 C18	-52.052	-0.758	-26.528	C.2	1	RES1	0.000	
21	 C19	-52.135	0.545	-27.029	C.2	1	RES1	0.000	
22	 C20	-52.332	0.766	-28.375	C.2	1	RES1	0.000	
23	 C21	-52.453	-0.296	-29.260	C.2	1	RES1	0.000	
24	 C22	-52.389	-1.597	-28.782	C.2	1	RES1	0.000	
25	 C23	-52.183	-1.844	-27.430	C.2	1	RES1	0.000	
26	 C24	-50.852	-1.685	-22.358	C.3	1	RES1	0.000	
27	 C25	-51.308	-2.778	-21.383	C.3	1	RES1	0.000	
28	 C26	-50.021	-3.149	-20.649	C.3	1	RES1	0.000	
29	 C27	-49.338	-1.817	-20.431	C.3	1	RES1	0.000	
30	 C28	-49.610	-1.030	-21.728	C.3	1	RES1	0.000	
31	 C29	-52.650	0.007	-21.884	C.2	1	RES1	0.000	
32	 C30	-51.670	-0.355	-17.688	C.2	1	RES1	0.000	
33	 C31	-50.923	-0.815	-16.594	C.2	1	RES1	0.000	
34	 C32	-50.962	-0.614	-12.788	C.3	1	RES1	0.000	
35	 C33	-49.840	-0.732	-11.736	C.3	1	RES1	0.000	
@<TRIPOS>BOND
1 1 6 1
2 1 8 1
3 1 35 1
4 2 10 1
5 2 34 1
6 8 10 1
7 2 12 1
8 12 13 ar
9 12 33 ar
10 13 14 ar
11 14 15 ar
12 3 15 1
13 15 32 ar
14 3 16 1
15 4 16 ar
16 11 16 ar
17 4 17 ar
18 17 18 ar
19 5 18 ar
20 18 31 ar
21 5 19 ar
22 7 19 1
23 9 19 ar
24 7 20 1
25 20 21 ar
26 20 25 ar
27 21 22 ar
28 22 23 ar
29 23 24 ar
30 24 25 ar
31 9 26 1
32 26 27 1
33 26 30 1
34 27 28 1
35 28 29 1
36 29 30 1
37 9 31 ar
38 11 31 ar
39 32 33 ar
40 34 35 1
@<TRIPOS>SUBSTRUCTURE
1	RES1	1	GROUP	1 ****	RES
