# created with PyMOL 2.5.2
@<TRIPOS>MOLECULE
EGFR_5X27_TargetProtein
35 40 1                 
SMALL
USER_CHARGES
@<TRIPOS>ATOM
1	  N2	-48.863	-1.602	-11.832	N.3	1	RES1	0.000	
2	  N3	-50.458	-0.888	-14.151	N.pl3	1	RES1	0.000	
3	  N4	-53.499	1.057	-18.559	N.pl3	1	RES1	0.000	
4	  N5	-54.352	1.649	-20.654	N.2	1	RES1	0.000	
5	  N6	-53.333	0.431	-23.993	N.2	1	RES1	0.000	
6	  N7	-51.799	-1.051	-25.168	N.pl3	1	RES1	0.000	
7	  N8	-51.958	-0.807	-22.765	N.2	1	RES1	0.000	
8	  C9	-48.384	-2.480	-10.766	C.3	1	RES1	0.000	
9	  N9	-52.594	0.009	-20.544	N.2	1	RES1	0.000	
10	 C10	-50.337	-1.371	-11.714	C.3	1	RES1	0.000	
11	 C11	-50.872	-0.438	-12.799	C.3	1	RES1	0.000	
12	 C12	-51.198	-0.406	-15.269	C.2	1	RES1	0.000	
13	 C13	-52.219	0.539	-15.118	C.2	1	RES1	0.000	
14	 C14	-52.972	1.023	-16.214	C.2	1	RES1	0.000	
15	 C15	-52.693	0.561	-17.535	C.2	1	RES1	0.000	
16	 C16	-53.448	0.878	-19.982	C.2	1	RES1	0.000	
17	 C17	-54.389	1.565	-22.011	C.2	1	RES1	0.000	
18	 C18	-53.509	0.710	-22.665	C.2	1	RES1	0.000	
19	 C19	-52.373	-0.478	-24.051	C.2	1	RES1	0.000	
20	 C20	-51.983	-0.707	-26.514	C.2	1	RES1	0.000	
21	 C21	-52.099	0.607	-26.989	C.2	1	RES1	0.000	
22	 C22	-52.303	0.898	-28.353	C.2	1	RES1	0.000	
23	 C23	-52.380	-0.166	-29.251	C.2	1	RES1	0.000	
24	 C24	-52.257	-1.465	-28.818	C.2	1	RES1	0.000	
25	 C25	-52.088	-1.744	-27.461	C.2	1	RES1	0.000	
26	 C26	-50.957	-1.824	-22.354	C.3	1	RES1	0.000	
27	 C27	-51.487	-2.874	-21.399	C.3	1	RES1	0.000	
28	 C28	-50.461	-2.956	-20.258	C.3	1	RES1	0.000	
29	 C29	-49.197	-2.357	-20.856	C.3	1	RES1	0.000	
30	 C30	-49.702	-1.239	-21.734	C.3	1	RES1	0.000	
31	 C31	-52.661	-0.015	-21.883	C.2	1	RES1	0.000	
32	 C32	-51.688	-0.372	-17.671	C.2	1	RES1	0.000	
33	 C33	-50.954	-0.855	-16.573	C.2	1	RES1	0.000	
34	 C34	-49.023	-1.262	-14.290	C.3	1	RES1	0.000	
35	 C35	-48.577	-2.179	-13.171	C.3	1	RES1	0.000	
@<TRIPOS>BOND
1 1 8 1
2 1 35 1
3 2 34 1
4 1 10 1
5 10 11 1
6 2 11 1
7 2 12 1
8 12 13 ar
9 12 33 ar
10 13 14 ar
11 14 15 ar
12 3 15 1
13 15 32 ar
14 3 16 1
15 4 16 ar
16 9 16 ar
17 4 17 ar
18 17 18 ar
19 5 18 ar
20 18 31 ar
21 5 19 ar
22 6 19 1
23 7 19 ar
24 6 20 1
25 20 21 ar
26 20 25 ar
27 21 22 ar
28 22 23 ar
29 23 24 ar
30 24 25 ar
31 7 26 1
32 26 27 1
33 26 30 1
34 27 28 1
35 28 29 1
36 29 30 1
37 7 31 ar
38 9 31 ar
39 32 33 ar
40 34 35 1
@<TRIPOS>SUBSTRUCTURE
1	RES1	1	GROUP	1 ****	RES
