# created with PyMOL 2.5.2
@<TRIPOS>MOLECULE
EGFR_5X27_TargetProtein
35 40 1                 
SMALL
USER_CHARGES
@<TRIPOS>ATOM
1	  N2	-49.323	-1.930	-11.599	N.3	1	RES1	0.000	
2	  N3	-50.551	-0.827	-13.978	N.pl3	1	RES1	0.000	
3	  N4	-53.475	1.174	-18.473	N.pl3	1	RES1	0.000	
4	  N5	-54.169	1.901	-20.567	N.2	1	RES1	0.000	
5	  N6	-53.304	0.540	-23.898	N.2	1	RES1	0.000	
6	  N7	-51.999	-1.189	-24.992	N.pl3	1	RES1	0.000	
7	  N8	-52.108	-0.870	-22.635	N.2	1	RES1	0.000	
8	  C9	-48.295	-2.058	-10.552	C.3	1	RES1	0.000	
9	  N9	-52.681	0.038	-20.424	N.2	1	RES1	0.000	
10	 C10	-49.968	-0.609	-11.577	C.3	1	RES1	0.000	
11	 C11	-51.043	-0.459	-12.624	C.3	1	RES1	0.000	
12	 C12	-51.286	-0.364	-15.115	C.2	1	RES1	0.000	
13	 C13	-52.321	0.594	-14.977	C.2	1	RES1	0.000	
14	 C14	-52.989	1.055	-16.091	C.2	1	RES1	0.000	
15	 C15	-52.724	0.631	-17.394	C.2	1	RES1	0.000	
16	 C16	-53.423	1.006	-19.856	C.2	1	RES1	0.000	
17	 C17	-54.190	1.834	-21.920	C.2	1	RES1	0.000	
18	 C18	-53.456	0.858	-22.558	C.2	1	RES1	0.000	
19	 C19	-52.470	-0.509	-23.921	C.2	1	RES1	0.000	
20	 C20	-52.106	-0.851	-26.383	C.2	1	RES1	0.000	
21	 C21	-52.051	0.473	-26.885	C.2	1	RES1	0.000	
22	 C22	-52.156	0.688	-28.255	C.2	1	RES1	0.000	
23	 C23	-52.352	-0.335	-29.133	C.2	1	RES1	0.000	
24	 C24	-52.426	-1.634	-28.657	C.2	1	RES1	0.000	
25	 C25	-52.289	-1.900	-27.312	C.2	1	RES1	0.000	
26	 C26	-51.237	-1.957	-22.173	C.3	1	RES1	0.000	
27	 C27	-50.154	-1.543	-21.141	C.3	1	RES1	0.000	
28	 C28	-48.860	-2.099	-21.658	C.3	1	RES1	0.000	
29	 C29	-49.243	-3.230	-22.589	C.3	1	RES1	0.000	
30	 C30	-50.471	-2.697	-23.286	C.3	1	RES1	0.000	
31	 C31	-52.741	-0.011	-21.797	C.2	1	RES1	0.000	
32	 C32	-51.677	-0.289	-17.519	C.2	1	RES1	0.000	
33	 C33	-50.994	-0.776	-16.437	C.2	1	RES1	0.000	
34	 C34	-49.783	-2.088	-14.049	C.3	1	RES1	0.000	
35	 C35	-48.751	-2.174	-12.942	C.3	1	RES1	0.000	
@<TRIPOS>BOND
1 1 8 1
2 1 35 1
3 2 34 1
4 1 10 1
5 10 11 1
6 2 11 1
7 2 12 1
8 12 13 ar
9 12 33 ar
10 13 14 ar
11 14 15 ar
12 3 15 1
13 15 32 ar
14 3 16 1
15 4 16 ar
16 9 16 ar
17 4 17 ar
18 17 18 ar
19 5 18 ar
20 18 31 ar
21 5 19 ar
22 6 19 1
23 7 19 ar
24 6 20 1
25 20 21 ar
26 20 25 ar
27 21 22 ar
28 22 23 ar
29 23 24 ar
30 24 25 ar
31 7 26 1
32 26 27 1
33 26 30 1
34 27 28 1
35 28 29 1
36 29 30 1
37 7 31 ar
38 9 31 ar
39 32 33 ar
40 34 35 1
@<TRIPOS>SUBSTRUCTURE
1	RES1	1	GROUP	1 ****	RES
