# created with PyMOL 2.5.2
@<TRIPOS>MOLECULE
EGFR_5X27_TargetProtein
35 40 1                 
SMALL
USER_CHARGES
@<TRIPOS>ATOM
1	  N2	-49.278	-2.024	-11.668	N.3	1	RES1	0.000	
2	  N3	-50.550	-0.800	-13.976	N.pl3	1	RES1	0.000	
3	  N4	-53.457	1.222	-18.461	N.pl3	1	RES1	0.000	
4	  N5	-54.133	1.926	-20.559	N.2	1	RES1	0.000	
5	  N6	-53.288	0.541	-23.857	N.2	1	RES1	0.000	
6	  N7	-52.023	-1.197	-24.960	N.pl3	1	RES1	0.000	
7	  N8	-52.101	-0.835	-22.635	N.2	1	RES1	0.000	
8	  C9	-48.381	-2.073	-10.514	C.3	1	RES1	0.000	
9	  N9	-52.683	0.049	-20.416	N.2	1	RES1	0.000	
10	 C10	-48.518	-1.801	-12.932	C.3	1	RES1	0.000	
11	 C11	-49.464	-1.768	-14.128	C.3	1	RES1	0.000	
12	 C12	-51.293	-0.320	-15.103	C.2	1	RES1	0.000	
13	 C13	-51.072	-0.836	-16.400	C.2	1	RES1	0.000	
14	 C14	-51.766	-0.361	-17.508	C.2	1	RES1	0.000	
15	 C15	-52.707	0.671	-17.355	C.2	1	RES1	0.000	
16	 C16	-53.412	1.039	-19.848	C.2	1	RES1	0.000	
17	 C17	-54.161	1.863	-21.919	C.2	1	RES1	0.000	
18	 C18	-53.438	0.893	-22.559	C.2	1	RES1	0.000	
19	 C19	-52.479	-0.488	-23.908	C.2	1	RES1	0.000	
20	 C20	-52.141	-0.869	-26.368	C.2	1	RES1	0.000	
21	 C21	-52.076	0.418	-26.897	C.2	1	RES1	0.000	
22	 C22	-52.204	0.664	-28.267	C.2	1	RES1	0.000	
23	 C23	-52.345	-0.407	-29.137	C.2	1	RES1	0.000	
24	 C24	-52.407	-1.703	-28.639	C.2	1	RES1	0.000	
25	 C25	-52.267	-1.943	-27.276	C.2	1	RES1	0.000	
26	 C26	-51.212	-1.933	-22.172	C.3	1	RES1	0.000	
27	 C27	-50.123	-1.518	-21.185	C.3	1	RES1	0.000	
28	 C28	-48.839	-2.107	-21.749	C.3	1	RES1	0.000	
29	 C29	-49.296	-3.244	-22.629	C.3	1	RES1	0.000	
30	 C30	-50.550	-2.717	-23.276	C.3	1	RES1	0.000	
31	 C31	-52.708	0.031	-21.758	C.2	1	RES1	0.000	
32	 C32	-52.907	1.202	-16.115	C.2	1	RES1	0.000	
33	 C33	-52.221	0.704	-15.011	C.2	1	RES1	0.000	
34	 C34	-51.267	-0.909	-12.678	C.3	1	RES1	0.000	
35	 C35	-50.302	-0.980	-11.504	C.3	1	RES1	0.000	
@<TRIPOS>BOND
1 1 8 1
2 1 35 1
3 2 34 1
4 1 10 1
5 10 11 1
6 2 11 1
7 2 12 1
8 12 13 ar
9 12 33 ar
10 13 14 ar
11 14 15 ar
12 3 15 1
13 15 32 ar
14 3 16 1
15 4 16 ar
16 9 16 ar
17 4 17 ar
18 17 18 ar
19 5 18 ar
20 18 31 ar
21 5 19 ar
22 6 19 1
23 7 19 ar
24 6 20 1
25 20 21 ar
26 20 25 ar
27 21 22 ar
28 22 23 ar
29 23 24 ar
30 24 25 ar
31 7 26 1
32 26 27 1
33 26 30 1
34 27 28 1
35 28 29 1
36 29 30 1
37 7 31 ar
38 9 31 ar
39 32 33 ar
40 34 35 1
@<TRIPOS>SUBSTRUCTURE
1	RES1	1	GROUP	1 ****	RES
