# created with PyMOL 2.5.2
@<TRIPOS>MOLECULE
EGFR_5X27_TargetProtein
35 40 1                 
SMALL
USER_CHARGES
@<TRIPOS>ATOM
1	  N2	-49.311	-2.014	-11.668	N.3	1	RES1	0.000	
2	  N3	-50.566	-0.817	-13.946	N.pl3	1	RES1	0.000	
3	  N4	-53.446	1.219	-18.469	N.pl3	1	RES1	0.000	
4	  N5	-54.155	1.921	-20.558	N.2	1	RES1	0.000	
5	  N6	-53.300	0.539	-23.894	N.2	1	RES1	0.000	
6	  N7	-52.015	-1.195	-24.979	N.pl3	1	RES1	0.000	
7	  N8	-52.092	-0.832	-22.623	N.2	1	RES1	0.000	
8	  N9	-52.648	0.067	-20.433	N.2	1	RES1	0.000	
9	 C11	-48.377	-2.088	-10.536	C.3	1	RES1	0.000	
10	 C12	-48.556	-1.842	-12.927	C.3	1	RES1	0.000	
11	 C13	-49.482	-1.806	-14.116	C.3	1	RES1	0.000	
12	 C14	-51.282	-0.320	-15.101	C.2	1	RES1	0.000	
13	 C15	-52.264	0.680	-15.016	C.2	1	RES1	0.000	
14	 C16	-52.954	1.151	-16.092	C.2	1	RES1	0.000	
15	 C17	-52.688	0.686	-17.380	C.2	1	RES1	0.000	
16	 C18	-53.402	1.039	-19.857	C.2	1	RES1	0.000	
17	 C19	-54.174	1.847	-21.903	C.2	1	RES1	0.000	
18	 C20	-53.473	0.870	-22.556	C.2	1	RES1	0.000	
19	 C21	-52.470	-0.486	-23.917	C.2	1	RES1	0.000	
20	 C22	-52.126	-0.882	-26.380	C.2	1	RES1	0.000	
21	 C23	-52.055	0.428	-26.887	C.2	1	RES1	0.000	
22	 C24	-52.172	0.661	-28.262	C.2	1	RES1	0.000	
23	 C25	-52.368	-0.406	-29.149	C.2	1	RES1	0.000	
24	 C26	-52.427	-1.701	-28.621	C.2	1	RES1	0.000	
25	 C27	-52.323	-1.909	-27.293	C.2	1	RES1	0.000	
26	 C28	-51.200	-1.931	-22.191	C.3	1	RES1	0.000	
27	 C29	-50.125	-1.543	-21.188	C.3	1	RES1	0.000	
28	 C30	-48.856	-2.120	-21.698	C.3	1	RES1	0.000	
29	 C31	-49.281	-3.261	-22.628	C.3	1	RES1	0.000	
30	 C32	-50.514	-2.685	-23.273	C.3	1	RES1	0.000	
31	 C33	-52.729	0.016	-21.748	C.2	1	RES1	0.000	
32	 C34	-51.698	-0.309	-17.519	C.2	1	RES1	0.000	
33	 C35	-51.032	-0.804	-16.399	C.2	1	RES1	0.000	
34	 C36	-51.258	-0.859	-12.669	C.3	1	RES1	0.000	
35	 C37	-50.245	-0.923	-11.492	C.3	1	RES1	0.000	
@<TRIPOS>BOND
1 1 35 1
2 2 34 1
3 1 9 1
4 1 10 1
5 10 11 1
6 2 11 1
7 2 12 1
8 12 13 ar
9 12 33 ar
10 13 14 ar
11 14 15 ar
12 3 15 1
13 15 32 ar
14 3 16 1
15 4 16 ar
16 8 16 ar
17 4 17 ar
18 17 18 ar
19 5 18 ar
20 18 31 ar
21 5 19 ar
22 6 19 1
23 7 19 ar
24 6 20 1
25 20 21 ar
26 20 25 ar
27 21 22 ar
28 22 23 ar
29 23 24 ar
30 24 25 ar
31 7 26 1
32 26 27 1
33 26 30 1
34 27 28 1
35 28 29 1
36 29 30 1
37 7 31 ar
38 8 31 ar
39 32 33 ar
40 34 35 1
@<TRIPOS>SUBSTRUCTURE
1	RES1	1	GROUP	1 ****	RES
