# created with PyMOL 2.5.2
@<TRIPOS>MOLECULE
BRD4_6DL2_TargetProtein
22 25 1                 
SMALL
USER_CHARGES
@<TRIPOS>ATOM
1	  C1	11.832	4.624	-2.675	C.3	1	RES1	0.000	
2	  N1	13.547	3.934	-1.073	N.2	1	RES1	0.000	
3	  O1	12.286	6.206	2.455	O.3	1	RES1	0.000	
4	  S1	9.301	5.355	-1.006	S.2	1	RES1	0.000	
5	  C2	12.392	4.485	-1.291	C.2	1	RES1	0.000	
6	  N2	13.817	4.008	0.248	N.2	1	RES1	0.000	
7	  C3	12.798	4.593	0.832	C.2	1	RES1	0.000	
8	  C4	12.736	4.851	2.281	C.3	1	RES1	0.000	
9	  C5	10.895	6.309	2.610	C.3	1	RES1	0.000	
10	  C6	10.096	6.022	1.370	C.2	1	RES1	0.000	
11	  C7	10.541	5.435	0.205	C.2	1	RES1	0.000	
12	  N7	11.798	4.875	-0.088	N.2	1	RES1	0.000	
13	  C8	8.148	6.116	0.014	C.2	1	RES1	0.000	
14	  C9	6.776	6.398	-0.520	C.3	1	RES1	0.000	
15	 C28	8.673	6.417	1.263	C.2	1	RES1	0.000	
16	 C29	7.884	7.098	2.369	C.3	1	RES1	0.000	
17	 C30	7.607	6.050	3.445	C.2	1	RES1	0.000	
18	 C31	6.974	4.855	3.186	C.2	1	RES1	0.000	
19	 C32	6.734	3.928	4.228	C.2	1	RES1	0.000	
20	 C33	7.125	4.232	5.524	C.2	1	RES1	0.000	
21	 C34	7.733	5.449	5.789	C.2	1	RES1	0.000	
22	 C35	7.992	6.336	4.776	C.2	1	RES1	0.000	
@<TRIPOS>BOND
1 1 5 1
2 2 5 ar
3 2 6 ar
4 3 8 1
5 3 9 1
6 4 11 ar
7 4 13 ar
8 5 12 ar
9 6 7 ar
10 7 8 1
11 7 12 ar
12 9 10 1
13 10 11 ar
14 11 12 1
15 13 14 1
16 10 15 ar
17 13 15 ar
18 15 16 1
19 16 17 1
20 17 18 ar
21 17 22 ar
22 18 19 ar
23 19 20 ar
24 20 21 ar
25 21 22 ar
@<TRIPOS>SUBSTRUCTURE
1	RES1	1	GROUP	1 ****	RES
