# created with PyMOL 2.5.2
@<TRIPOS>MOLECULE
EGFR_5X27_TargetProtein
35 40 1                 
SMALL
USER_CHARGES
@<TRIPOS>ATOM
1	  N2	-48.997	-2.367	-12.458	N.3	1	RES1	0.000	
2	  N3	-50.551	-0.882	-14.402	N.pl3	1	RES1	0.000	
3	  N4	-53.791	1.509	-18.443	N.pl3	1	RES1	0.000	
4	  N5	-54.443	2.170	-20.686	N.2	1	RES1	0.000	
5	  N6	-53.259	0.545	-23.781	N.2	1	RES1	0.000	
6	  N7	-51.867	-1.234	-24.657	N.pl3	1	RES1	0.000	
7	  N8	-52.211	-0.721	-22.325	N.2	1	RES1	0.000	
8	  N9	-52.950	0.334	-20.245	N.2	1	RES1	0.000	
9	 C11	-47.925	-2.584	-11.463	C.3	1	RES1	0.000	
10	 C12	-48.428	-2.043	-13.792	C.3	1	RES1	0.000	
11	 C13	-49.520	-1.828	-14.826	C.3	1	RES1	0.000	
12	 C14	-51.389	-0.282	-15.385	C.2	1	RES1	0.000	
13	 C15	-51.294	-0.654	-16.738	C.2	1	RES1	0.000	
14	 C16	-52.102	-0.057	-17.700	C.2	1	RES1	0.000	
15	 C17	-53.025	0.948	-17.393	C.2	1	RES1	0.000	
16	 C18	-53.754	1.349	-19.838	C.2	1	RES1	0.000	
17	 C19	-54.361	1.997	-22.011	C.2	1	RES1	0.000	
18	 C20	-53.545	0.957	-22.535	C.2	1	RES1	0.000	
19	 C21	-52.456	-0.475	-23.662	C.2	1	RES1	0.000	
20	 C22	-51.895	-1.035	-26.041	C.2	1	RES1	0.000	
21	 C23	-51.854	0.229	-26.682	C.2	1	RES1	0.000	
22	 C24	-51.840	0.352	-28.097	C.2	1	RES1	0.000	
23	 C25	-51.913	-0.805	-28.863	C.2	1	RES1	0.000	
24	 C26	-51.946	-2.051	-28.266	C.2	1	RES1	0.000	
25	 C27	-51.955	-2.162	-26.866	C.2	1	RES1	0.000	
26	 C28	-51.309	-1.771	-21.712	C.3	1	RES1	0.000	
27	 C29	-50.251	-1.239	-20.810	C.3	1	RES1	0.000	
28	 C30	-49.169	-2.297	-20.872	C.3	1	RES1	0.000	
29	 C31	-49.169	-2.709	-22.325	C.3	1	RES1	0.000	
30	 C32	-50.622	-2.687	-22.734	C.3	1	RES1	0.000	
31	 C33	-52.909	0.205	-21.601	C.2	1	RES1	0.000	
32	 C34	-53.087	1.332	-16.046	C.2	1	RES1	0.000	
33	 C35	-52.309	0.746	-15.075	C.2	1	RES1	0.000	
34	 C36	-51.058	-1.083	-13.016	C.3	1	RES1	0.000	
35	 C37	-49.911	-1.314	-12.025	C.3	1	RES1	0.000	
@<TRIPOS>BOND
1 1 35 1
2 2 34 1
3 1 9 1
4 1 10 1
5 10 11 1
6 2 11 1
7 2 12 1
8 12 13 ar
9 12 33 ar
10 13 14 ar
11 14 15 ar
12 3 15 1
13 15 32 ar
14 3 16 1
15 4 16 ar
16 8 16 ar
17 4 17 ar
18 17 18 ar
19 5 18 ar
20 18 31 ar
21 5 19 ar
22 6 19 1
23 7 19 ar
24 6 20 1
25 20 21 ar
26 20 25 ar
27 21 22 ar
28 22 23 ar
29 23 24 ar
30 24 25 ar
31 7 26 1
32 26 27 1
33 26 30 1
34 27 28 1
35 28 29 1
36 29 30 1
37 7 31 ar
38 8 31 ar
39 32 33 ar
40 34 35 1
@<TRIPOS>SUBSTRUCTURE
1	RES1	1	GROUP	1 ****	RES
