# created with PyMOL 2.5.2
@<TRIPOS>MOLECULE
EGFR_5X27_TargetProtein
35 40 1                 
SMALL
USER_CHARGES
@<TRIPOS>ATOM
1	  N2	-48.834	-1.578	-11.839	N.3	1	RES1	0.000	
2	  N3	-50.468	-0.910	-14.142	N.pl3	1	RES1	0.000	
3	  N4	-53.523	1.058	-18.570	N.pl3	1	RES1	0.000	
4	  N5	-54.327	1.655	-20.652	N.2	1	RES1	0.000	
5	  N6	-53.321	0.459	-23.996	N.2	1	RES1	0.000	
6	  N7	-51.791	-1.040	-25.153	N.pl3	1	RES1	0.000	
7	  N8	-51.973	-0.824	-22.762	N.2	1	RES1	0.000	
8	  N9	-52.599	0.002	-20.522	N.2	1	RES1	0.000	
9	 C11	-48.320	-2.428	-10.767	C.3	1	RES1	0.000	
10	 C12	-50.275	-1.345	-11.713	C.3	1	RES1	0.000	
11	 C13	-50.865	-0.438	-12.794	C.3	1	RES1	0.000	
12	 C14	-51.201	-0.445	-15.289	C.2	1	RES1	0.000	
13	 C15	-52.225	0.530	-15.128	C.2	1	RES1	0.000	
14	 C16	-52.962	1.008	-16.218	C.2	1	RES1	0.000	
15	 C17	-52.727	0.541	-17.522	C.2	1	RES1	0.000	
16	 C18	-53.464	0.906	-19.959	C.2	1	RES1	0.000	
17	 C19	-54.385	1.586	-21.996	C.2	1	RES1	0.000	
18	 C20	-53.509	0.735	-22.668	C.2	1	RES1	0.000	
19	 C21	-52.363	-0.468	-24.059	C.2	1	RES1	0.000	
20	 C22	-51.983	-0.699	-26.516	C.2	1	RES1	0.000	
21	 C23	-52.109	0.627	-27.002	C.2	1	RES1	0.000	
22	 C24	-52.278	0.878	-28.358	C.2	1	RES1	0.000	
23	 C25	-52.348	-0.159	-29.270	C.2	1	RES1	0.000	
24	 C26	-52.223	-1.478	-28.831	C.2	1	RES1	0.000	
25	 C27	-52.040	-1.721	-27.459	C.2	1	RES1	0.000	
26	 C28	-50.966	-1.832	-22.361	C.3	1	RES1	0.000	
27	 C29	-51.519	-2.868	-21.379	C.3	1	RES1	0.000	
28	 C30	-50.518	-2.947	-20.240	C.3	1	RES1	0.000	
29	 C31	-49.233	-2.391	-20.832	C.3	1	RES1	0.000	
30	 C32	-49.722	-1.251	-21.717	C.3	1	RES1	0.000	
31	 C33	-52.687	-0.023	-21.884	C.2	1	RES1	0.000	
32	 C34	-51.718	-0.432	-17.696	C.2	1	RES1	0.000	
33	 C35	-50.999	-0.882	-16.582	C.2	1	RES1	0.000	
34	 C36	-49.041	-1.275	-14.322	C.3	1	RES1	0.000	
35	 C37	-48.550	-2.159	-13.172	C.3	1	RES1	0.000	
@<TRIPOS>BOND
1 1 35 1
2 2 34 1
3 1 9 1
4 1 10 1
5 10 11 1
6 2 11 1
7 2 12 1
8 12 13 ar
9 12 33 ar
10 13 14 ar
11 14 15 ar
12 3 15 1
13 15 32 ar
14 3 16 1
15 4 16 ar
16 8 16 ar
17 4 17 ar
18 17 18 ar
19 5 18 ar
20 18 31 ar
21 5 19 ar
22 6 19 1
23 7 19 ar
24 6 20 1
25 20 21 ar
26 20 25 ar
27 21 22 ar
28 22 23 ar
29 23 24 ar
30 24 25 ar
31 7 26 1
32 26 27 1
33 26 30 1
34 27 28 1
35 28 29 1
36 29 30 1
37 7 31 ar
38 8 31 ar
39 32 33 ar
40 34 35 1
@<TRIPOS>SUBSTRUCTURE
1	RES1	1	GROUP	1 ****	RES
