# created with PyMOL 2.5.2
@<TRIPOS>MOLECULE
CDK6_2EUF_TargetProtein
33 37 1                 
SMALL
USER_CHARGES
@<TRIPOS>ATOM
1	  C1	34.676	27.674	59.504	C.3	1	RES1	0.000	
2	  N1	31.406	22.972	63.558	N.2	1	RES1	0.000	
3	  O1	32.597	28.709	60.047	O.2	1	RES1	0.000	
4	  C2	33.276	27.669	59.983	C.2	1	RES1	0.000	
5	  N2	30.266	20.998	62.742	N.pl3	1	RES1	0.000	
6	  C3	32.655	26.376	60.383	C.2	1	RES1	0.000	
7	  N3	27.839	16.929	59.630	N.pl3	1	RES1	0.000	
8	  C4	32.631	25.983	61.666	C.2	1	RES1	0.000	
9	  N4	26.570	14.632	58.377	N.3	1	RES1	0.000	
10	  C5	33.164	26.802	62.817	C.3	1	RES1	0.000	
11	  C6	32.005	24.673	61.990	C.2	1	RES1	0.000	
12	  C7	31.935	24.147	63.261	C.2	1	RES1	0.000	
13	  O7	32.156	25.920	58.113	O.2	1	RES1	0.000	
14	  C8	30.885	22.222	62.534	C.2	1	RES1	0.000	
15	  N8	29.414	18.850	62.493	N.2	1	RES1	0.000	
16	  C9	29.657	20.054	61.927	C.2	1	RES1	0.000	
17	  N9	30.882	22.679	61.279	N.2	1	RES1	0.000	
18	 C10	29.308	20.293	60.600	C.2	1	RES1	0.000	
19	 N10	31.437	24.326	59.625	N.2	1	RES1	0.000	
20	 C11	28.706	19.252	59.821	C.2	1	RES1	0.000	
21	 C12	28.441	18.004	60.375	C.2	1	RES1	0.000	
22	 C13	28.568	15.604	59.547	C.3	1	RES1	0.000	
23	 C14	28.026	14.759	58.403	C.3	1	RES1	0.000	
24	 C34	25.977	15.960	58.301	C.3	1	RES1	0.000	
25	 C35	26.400	16.903	59.470	C.3	1	RES1	0.000	
26	 C36	28.835	17.895	61.712	C.2	1	RES1	0.000	
27	 C37	31.426	23.868	60.971	C.2	1	RES1	0.000	
28	 C38	30.856	23.495	58.575	C.3	1	RES1	0.000	
29	 C39	29.954	24.226	57.585	C.3	1	RES1	0.000	
30	 C40	28.669	23.390	57.485	C.3	1	RES1	0.000	
31	 C41	29.111	22.019	57.933	C.3	1	RES1	0.000	
32	 C42	30.097	22.261	59.035	C.3	1	RES1	0.000	
33	 C43	32.075	25.520	59.282	C.2	1	RES1	0.000	
@<TRIPOS>BOND
1 1 4 1
2 2 12 ar
3 2 14 ar
4 3 4 2
5 4 6 1
6 5 14 1
7 5 16 1
8 6 8 ar
9 6 33 ar
10 7 25 1
11 8 10 1
12 8 11 ar
13 11 12 ar
14 14 17 ar
15 15 16 ar
16 16 18 ar
17 18 20 ar
18 19 27 ar
19 19 28 1
20 19 33 ar
21 20 21 ar
22 7 21 1
23 21 26 ar
24 7 22 1
25 22 23 1
26 9 23 1
27 9 24 1
28 24 25 1
29 15 26 ar
30 11 27 ar
31 17 27 ar
32 28 29 1
33 28 32 1
34 29 30 1
35 30 31 1
36 31 32 1
37 13 33 2
@<TRIPOS>SUBSTRUCTURE
1	RES1	1	GROUP	1 ****	RES
