# created with PyMOL 2.5.2
@<TRIPOS>MOLECULE
CDK6_2EUF_TargetProtein
33 37 1                 
SMALL
USER_CHARGES
@<TRIPOS>ATOM
1	  C1	34.707	27.647	59.479	C.3	1	RES1	0.000	
2	  N1	31.347	22.977	63.583	N.2	1	RES1	0.000	
3	  O1	32.629	28.694	60.017	O.2	1	RES1	0.000	
4	  C2	33.287	27.673	59.969	C.2	1	RES1	0.000	
5	  N2	30.212	21.040	62.778	N.pl3	1	RES1	0.000	
6	  C3	32.649	26.348	60.342	C.2	1	RES1	0.000	
7	  N3	27.892	16.938	59.633	N.pl3	1	RES1	0.000	
8	  C4	32.655	25.963	61.635	C.2	1	RES1	0.000	
9	  N4	26.620	14.657	58.333	N.3	1	RES1	0.000	
10	  C5	33.318	26.729	62.768	C.3	1	RES1	0.000	
11	  C6	32.022	24.674	61.963	C.2	1	RES1	0.000	
12	  C7	31.922	24.161	63.271	C.2	1	RES1	0.000	
13	  C8	30.812	22.269	62.570	C.2	1	RES1	0.000	
14	  N8	29.363	18.872	62.492	N.2	1	RES1	0.000	
15	  C9	29.643	20.066	61.944	C.2	1	RES1	0.000	
16	  N9	30.838	22.672	61.291	N.2	1	RES1	0.000	
17	  O9	32.085	25.934	58.129	O.2	1	RES1	0.000	
18	 C10	29.325	20.284	60.569	C.2	1	RES1	0.000	
19	 N10	31.461	24.288	59.634	N.2	1	RES1	0.000	
20	 C11	28.749	19.266	59.830	C.2	1	RES1	0.000	
21	 C12	28.487	18.013	60.385	C.2	1	RES1	0.000	
22	 C13	28.585	15.626	59.529	C.3	1	RES1	0.000	
23	 C14	28.063	14.779	58.348	C.3	1	RES1	0.000	
24	 C34	26.007	16.011	58.270	C.3	1	RES1	0.000	
25	 C35	26.443	16.914	59.439	C.3	1	RES1	0.000	
26	 C36	28.826	17.897	61.749	C.2	1	RES1	0.000	
27	 C37	31.426	23.864	60.986	C.2	1	RES1	0.000	
28	 C38	30.827	23.449	58.585	C.3	1	RES1	0.000	
29	 C39	29.962	24.154	57.563	C.3	1	RES1	0.000	
30	 C40	28.650	23.401	57.520	C.3	1	RES1	0.000	
31	 C41	29.043	21.981	58.019	C.3	1	RES1	0.000	
32	 C42	30.014	22.302	59.125	C.3	1	RES1	0.000	
33	 C43	32.031	25.521	59.275	C.2	1	RES1	0.000	
@<TRIPOS>BOND
1 1 4 1
2 2 12 ar
3 2 13 ar
4 3 4 2
5 4 6 1
6 5 13 1
7 5 15 1
8 6 8 ar
9 6 33 ar
10 7 25 1
11 8 10 1
12 8 11 ar
13 11 12 ar
14 13 16 ar
15 14 15 ar
16 15 18 ar
17 18 20 ar
18 19 27 ar
19 19 28 1
20 19 33 ar
21 20 21 ar
22 7 21 1
23 21 26 ar
24 7 22 1
25 22 23 1
26 9 23 1
27 9 24 1
28 24 25 1
29 14 26 ar
30 11 27 ar
31 16 27 ar
32 28 29 1
33 28 32 1
34 29 30 1
35 30 31 1
36 31 32 1
37 17 33 2
@<TRIPOS>SUBSTRUCTURE
1	RES1	1	GROUP	1 ****	RES
