# created with PyMOL 2.5.2
@<TRIPOS>MOLECULE
CDK6_2EUF_TargetProtein
33 37 1                 
SMALL
USER_CHARGES
@<TRIPOS>ATOM
1	  C1	34.361	27.550	59.266	C.3	1	RES1	0.000	
2	  N1	31.647	22.781	63.635	N.2	1	RES1	0.000	
3	  O1	32.445	28.670	60.163	O.2	1	RES1	0.000	
4	  C2	33.040	27.591	59.974	C.2	1	RES1	0.000	
5	  N2	30.362	20.882	62.928	N.pl3	1	RES1	0.000	
6	  C3	32.445	26.289	60.410	C.2	1	RES1	0.000	
7	  N3	27.765	16.899	59.839	N.pl3	1	RES1	0.000	
8	  C4	32.649	25.838	61.672	C.2	1	RES1	0.000	
9	  N4	26.665	14.761	58.205	N.3	1	RES1	0.000	
10	  C5	33.388	26.617	62.734	C.3	1	RES1	0.000	
11	  C6	32.075	24.551	62.024	C.2	1	RES1	0.000	
12	  C7	32.186	23.960	63.294	C.2	1	RES1	0.000	
13	  C8	30.948	22.138	62.694	C.2	1	RES1	0.000	
14	  N8	29.615	18.683	62.577	N.2	1	RES1	0.000	
15	  C9	29.706	19.935	62.089	C.2	1	RES1	0.000	
16	  N9	30.777	22.591	61.460	N.2	1	RES1	0.000	
17	 C10	29.178	20.232	60.855	C.2	1	RES1	0.000	
18	 N10	31.142	24.292	59.796	N.2	1	RES1	0.000	
19	 O10	31.522	25.989	58.284	O.2	1	RES1	0.000	
20	 C11	28.546	19.257	60.076	C.2	1	RES1	0.000	
21	 C12	28.417	17.937	60.551	C.2	1	RES1	0.000	
22	 C13	27.023	17.195	58.568	C.3	1	RES1	0.000	
23	 C14	26.046	16.101	58.187	C.3	1	RES1	0.000	
24	 C36	27.167	14.499	59.544	C.3	1	RES1	0.000	
25	 C37	28.241	15.502	59.988	C.3	1	RES1	0.000	
26	 C38	28.985	17.749	61.840	C.2	1	RES1	0.000	
27	 C39	31.309	23.791	61.122	C.2	1	RES1	0.000	
28	 C40	30.330	23.477	58.848	C.3	1	RES1	0.000	
29	 C41	31.181	22.751	57.765	C.3	1	RES1	0.000	
30	 C42	30.591	23.166	56.429	C.3	1	RES1	0.000	
31	 C43	29.172	23.589	56.739	C.3	1	RES1	0.000	
32	 C44	29.317	24.279	58.072	C.3	1	RES1	0.000	
33	 C45	31.660	25.522	59.396	C.2	1	RES1	0.000	
@<TRIPOS>BOND
1 1 4 1
2 2 12 ar
3 2 13 ar
4 3 4 2
5 4 6 1
6 5 13 1
7 5 15 1
8 6 8 ar
9 6 33 ar
10 7 25 1
11 8 10 1
12 8 11 ar
13 11 12 ar
14 13 16 ar
15 14 15 ar
16 15 17 ar
17 17 20 ar
18 18 27 ar
19 18 28 1
20 18 33 ar
21 19 33 2
22 20 21 ar
23 7 21 1
24 21 26 ar
25 7 22 1
26 22 23 1
27 9 23 1
28 9 24 1
29 24 25 1
30 14 26 ar
31 11 27 ar
32 16 27 ar
33 28 29 1
34 28 32 1
35 29 30 1
36 30 31 1
37 31 32 1
@<TRIPOS>SUBSTRUCTURE
1	RES1	1	GROUP	1 ****	RES
