# created with PyMOL 2.5.2
@<TRIPOS>MOLECULE
CDK6_2EUF_TargetProtein
33 37 1                 
SMALL
USER_CHARGES
@<TRIPOS>ATOM
1	  C1	34.649	27.721	59.517	C.3	1	RES1	0.000	
2	  N1	31.480	22.902	63.546	N.2	1	RES1	0.000	
3	  O1	32.551	28.731	60.057	O.2	1	RES1	0.000	
4	  C2	33.215	27.705	59.984	C.2	1	RES1	0.000	
5	  N2	30.371	20.946	62.745	N.pl3	1	RES1	0.000	
6	  C3	32.617	26.379	60.369	C.2	1	RES1	0.000	
7	  N3	27.939	16.865	59.642	N.pl3	1	RES1	0.000	
8	  C4	32.597	25.995	61.651	C.2	1	RES1	0.000	
9	  N4	26.351	14.856	58.293	N.3	1	RES1	0.000	
10	  C5	33.149	26.804	62.791	C.3	1	RES1	0.000	
11	  C6	32.017	24.680	61.969	C.2	1	RES1	0.000	
12	  C7	32.011	24.116	63.252	C.2	1	RES1	0.000	
13	  C8	30.941	22.198	62.535	C.2	1	RES1	0.000	
14	  N8	29.714	18.732	62.404	N.2	1	RES1	0.000	
15	  C9	29.755	19.995	61.933	C.2	1	RES1	0.000	
16	  N9	30.899	22.652	61.259	N.2	1	RES1	0.000	
17	 C10	29.214	20.274	60.677	C.2	1	RES1	0.000	
18	 N10	31.426	24.328	59.628	N.2	1	RES1	0.000	
19	 O10	32.053	25.955	58.138	O.2	1	RES1	0.000	
20	 C11	28.617	19.258	59.920	C.2	1	RES1	0.000	
21	 C12	28.586	17.965	60.402	C.2	1	RES1	0.000	
22	 C13	27.164	17.231	58.425	C.3	1	RES1	0.000	
23	 C14	26.910	15.999	57.555	C.3	1	RES1	0.000	
24	 C39	27.252	14.498	59.367	C.3	1	RES1	0.000	
25	 C40	27.537	15.628	60.330	C.3	1	RES1	0.000	
26	 C41	29.132	17.757	61.645	C.2	1	RES1	0.000	
27	 C42	31.447	23.862	60.990	C.2	1	RES1	0.000	
28	 C43	30.811	23.500	58.566	C.3	1	RES1	0.000	
29	 C44	29.882	24.246	57.589	C.3	1	RES1	0.000	
30	 C45	28.614	23.406	57.549	C.3	1	RES1	0.000	
31	 C46	28.996	22.043	57.966	C.3	1	RES1	0.000	
32	 C47	30.008	22.297	59.051	C.3	1	RES1	0.000	
33	 C48	31.997	25.540	59.279	C.2	1	RES1	0.000	
@<TRIPOS>BOND
1 1 4 1
2 2 12 ar
3 2 13 ar
4 3 4 2
5 4 6 1
6 5 13 1
7 5 15 1
8 6 8 ar
9 6 33 ar
10 7 25 1
11 8 10 1
12 8 11 ar
13 11 12 ar
14 13 16 ar
15 14 15 ar
16 15 17 ar
17 17 20 ar
18 18 27 ar
19 18 28 1
20 18 33 ar
21 19 33 2
22 20 21 ar
23 7 21 1
24 21 26 ar
25 7 22 1
26 22 23 1
27 9 23 1
28 9 24 1
29 24 25 1
30 14 26 ar
31 11 27 ar
32 16 27 ar
33 28 29 1
34 28 32 1
35 29 30 1
36 30 31 1
37 31 32 1
@<TRIPOS>SUBSTRUCTURE
1	RES1	1	GROUP	1 ****	RES
