# created with PyMOL 2.5.2
@<TRIPOS>MOLECULE
CDK6_2EUF_TargetProtein
33 37 1                 
SMALL
USER_CHARGES
@<TRIPOS>ATOM
1	  C1	34.757	27.595	59.520	C.3	1	RES1	0.000	
2	  N1	31.389	22.961	63.568	N.2	1	RES1	0.000	
3	  O1	32.696	28.698	60.069	O.2	1	RES1	0.000	
4	  C2	33.313	27.648	59.973	C.2	1	RES1	0.000	
5	  N2	30.229	21.005	62.773	N.pl3	1	RES1	0.000	
6	  C3	32.666	26.357	60.346	C.2	1	RES1	0.000	
7	  N3	27.874	16.966	59.607	N.pl3	1	RES1	0.000	
8	  C4	32.627	25.982	61.641	C.2	1	RES1	0.000	
9	  N4	26.632	14.611	58.398	N.3	1	RES1	0.000	
10	  C5	33.184	26.811	62.767	C.3	1	RES1	0.000	
11	  C6	32.012	24.680	61.973	C.2	1	RES1	0.000	
12	  C7	31.951	24.127	63.252	C.2	1	RES1	0.000	
13	  C8	30.845	22.252	62.564	C.2	1	RES1	0.000	
14	  C9	29.641	20.058	61.908	C.2	1	RES1	0.000	
15	  N9	29.377	18.855	62.478	N.2	1	RES1	0.000	
16	 C10	29.321	20.305	60.567	C.2	1	RES1	0.000	
17	 N10	30.861	22.683	61.283	N.2	1	RES1	0.000	
18	 O10	32.119	25.920	58.108	O.2	1	RES1	0.000	
19	 C11	28.726	19.289	59.800	C.2	1	RES1	0.000	
20	 N11	31.416	24.340	59.645	N.2	1	RES1	0.000	
21	 C12	28.467	18.029	60.324	C.2	1	RES1	0.000	
22	 C13	28.610	15.672	59.523	C.3	1	RES1	0.000	
23	 C14	28.088	14.773	58.375	C.3	1	RES1	0.000	
24	 C42	25.986	15.955	58.333	C.3	1	RES1	0.000	
25	 C43	26.424	16.895	59.436	C.3	1	RES1	0.000	
26	 C44	28.812	17.917	61.709	C.2	1	RES1	0.000	
27	 C45	31.409	23.889	60.995	C.2	1	RES1	0.000	
28	 C46	30.801	23.487	58.604	C.3	1	RES1	0.000	
29	 C47	29.889	24.184	57.599	C.3	1	RES1	0.000	
30	 C48	28.617	23.349	57.525	C.3	1	RES1	0.000	
31	 C49	29.066	21.993	57.997	C.3	1	RES1	0.000	
32	 C50	30.051	22.256	59.096	C.3	1	RES1	0.000	
33	 C51	32.043	25.521	59.271	C.2	1	RES1	0.000	
@<TRIPOS>BOND
1 1 4 1
2 2 12 ar
3 2 13 ar
4 3 4 2
5 4 6 1
6 5 13 1
7 5 14 1
8 6 8 ar
9 6 33 ar
10 7 25 1
11 8 10 1
12 8 11 ar
13 9 24 1
14 11 12 ar
15 14 15 ar
16 14 16 ar
17 16 19 ar
18 13 17 ar
19 17 27 ar
20 18 33 2
21 19 21 ar
22 20 27 ar
23 20 28 1
24 20 33 ar
25 7 21 1
26 21 26 ar
27 7 22 1
28 22 23 1
29 9 23 1
30 24 25 1
31 15 26 ar
32 11 27 ar
33 28 29 1
34 28 32 1
35 29 30 1
36 30 31 1
37 31 32 1
@<TRIPOS>SUBSTRUCTURE
1	RES1	1	GROUP	1 ****	RES
