# created with PyMOL 2.5.2
@<TRIPOS>MOLECULE
CDK6_2EUF_TargetProtein
33 37 1                 
SMALL
USER_CHARGES
@<TRIPOS>ATOM
1	  C1	34.619	27.683	59.406	C.3	1	RES1	0.000	
2	  N1	31.448	22.953	63.575	N.2	1	RES1	0.000	
3	  O1	32.558	28.700	60.076	O.2	1	RES1	0.000	
4	  C2	33.215	27.665	59.959	C.2	1	RES1	0.000	
5	  N2	30.279	20.983	62.797	N.pl3	1	RES1	0.000	
6	  C3	32.610	26.349	60.340	C.2	1	RES1	0.000	
7	  N3	27.840	16.930	59.687	N.pl3	1	RES1	0.000	
8	  C4	32.676	25.946	61.641	C.2	1	RES1	0.000	
9	  N4	26.839	14.769	58.019	N.3	1	RES1	0.000	
10	  C5	33.343	26.713	62.748	C.3	1	RES1	0.000	
11	  C6	32.048	24.649	61.990	C.2	1	RES1	0.000	
12	  C7	31.988	24.114	63.265	C.2	1	RES1	0.000	
13	  C8	30.896	22.228	62.575	C.2	1	RES1	0.000	
14	  N8	29.570	18.797	62.483	N.2	1	RES1	0.000	
15	  C9	29.652	20.057	61.941	C.2	1	RES1	0.000	
16	  N9	30.885	22.652	61.296	N.2	1	RES1	0.000	
17	  O9	31.991	25.975	58.149	O.2	1	RES1	0.000	
18	 C10	29.177	20.324	60.677	C.2	1	RES1	0.000	
19	 N10	31.446	24.287	59.634	N.2	1	RES1	0.000	
20	 C11	28.597	19.300	59.933	C.2	1	RES1	0.000	
21	 C12	28.447	17.989	60.433	C.2	1	RES1	0.000	
22	 C13	27.204	17.239	58.399	C.3	1	RES1	0.000	
23	 C14	26.231	16.121	57.950	C.3	1	RES1	0.000	
24	 C44	27.289	14.521	59.378	C.3	1	RES1	0.000	
25	 C45	28.326	15.523	59.882	C.3	1	RES1	0.000	
26	 C46	28.991	17.858	61.719	C.2	1	RES1	0.000	
27	 C47	31.444	23.837	60.984	C.2	1	RES1	0.000	
28	 C48	30.812	23.447	58.571	C.3	1	RES1	0.000	
29	 C49	29.911	24.184	57.576	C.3	1	RES1	0.000	
30	 C50	28.619	23.416	57.529	C.3	1	RES1	0.000	
31	 C51	28.977	22.032	58.014	C.3	1	RES1	0.000	
32	 C52	29.973	22.301	59.112	C.3	1	RES1	0.000	
33	 C53	32.000	25.523	59.287	C.2	1	RES1	0.000	
@<TRIPOS>BOND
1 1 4 1
2 2 12 ar
3 2 13 ar
4 3 4 2
5 4 6 1
6 5 13 1
7 5 15 1
8 6 8 ar
9 6 33 ar
10 7 25 1
11 8 10 1
12 8 11 ar
13 9 24 1
14 11 12 ar
15 13 16 ar
16 14 15 ar
17 15 18 ar
18 18 20 ar
19 19 27 ar
20 19 28 1
21 19 33 ar
22 20 21 ar
23 7 21 1
24 21 26 ar
25 7 22 1
26 22 23 1
27 9 23 1
28 24 25 1
29 14 26 ar
30 11 27 ar
31 16 27 ar
32 28 29 1
33 28 32 1
34 29 30 1
35 30 31 1
36 31 32 1
37 17 33 2
@<TRIPOS>SUBSTRUCTURE
1	RES1	1	GROUP	1 ****	RES
