# created with PyMOL 2.5.2
@<TRIPOS>MOLECULE
CDK6_2EUF_TargetProtein
33 37 1                 
SMALL
USER_CHARGES
@<TRIPOS>ATOM
1	  C1	34.652	27.928	59.711	C.3	1	RES1	0.000	
2	  N1	31.384	22.800	63.377	N.2	1	RES1	0.000	
3	  O1	32.584	28.872	60.485	O.2	1	RES1	0.000	
4	  C2	33.251	27.841	60.259	C.2	1	RES1	0.000	
5	  N2	30.263	20.942	62.586	N.pl3	1	RES1	0.000	
6	  C3	32.642	26.502	60.517	C.2	1	RES1	0.000	
7	  N3	27.733	16.725	59.821	N.pl3	1	RES1	0.000	
8	  C4	32.691	25.957	61.753	C.2	1	RES1	0.000	
9	  N4	26.407	14.355	58.745	N.3	1	RES1	0.000	
10	  C5	33.315	26.595	62.940	C.3	1	RES1	0.000	
11	  C6	32.043	24.635	61.917	C.2	1	RES1	0.000	
12	  C7	31.975	23.996	63.154	C.2	1	RES1	0.000	
13	  C8	30.869	22.184	62.297	C.2	1	RES1	0.000	
14	  N8	29.416	18.775	62.479	N.2	1	RES1	0.000	
15	  C9	29.652	19.931	61.826	C.2	1	RES1	0.000	
16	  N9	30.860	22.719	61.046	N.2	1	RES1	0.000	
17	  O9	32.045	26.375	58.264	O.2	1	RES1	0.000	
18	 C10	29.274	20.082	60.477	C.2	1	RES1	0.000	
19	 N10	31.492	24.530	59.553	N.2	1	RES1	0.000	
20	 C11	28.626	19.033	59.826	C.2	1	RES1	0.000	
21	 C12	28.368	17.812	60.482	C.2	1	RES1	0.000	
22	 C13	28.436	15.398	59.783	C.3	1	RES1	0.000	
23	 C14	27.876	14.496	58.691	C.3	1	RES1	0.000	
24	 C46	25.807	15.683	58.596	C.3	1	RES1	0.000	
25	 C47	26.270	16.650	59.696	C.3	1	RES1	0.000	
26	 C48	28.794	17.803	61.811	C.2	1	RES1	0.000	
27	 C49	31.461	23.950	60.865	C.2	1	RES1	0.000	
28	 C50	30.902	23.816	58.397	C.3	1	RES1	0.000	
29	 C51	29.921	24.603	57.519	C.3	1	RES1	0.000	
30	 C52	29.203	23.554	56.729	C.3	1	RES1	0.000	
31	 C53	29.465	22.210	57.376	C.3	1	RES1	0.000	
32	 C54	30.192	22.510	58.692	C.3	1	RES1	0.000	
33	 C55	32.028	25.803	59.356	C.2	1	RES1	0.000	
@<TRIPOS>BOND
1 1 4 1
2 2 12 ar
3 2 13 ar
4 3 4 2
5 4 6 1
6 5 13 1
7 5 15 1
8 6 8 ar
9 6 33 ar
10 7 25 1
11 8 10 1
12 8 11 ar
13 9 24 1
14 11 12 ar
15 13 16 ar
16 14 15 ar
17 15 18 ar
18 18 20 ar
19 19 27 ar
20 19 28 1
21 19 33 ar
22 20 21 ar
23 7 21 1
24 21 26 ar
25 7 22 1
26 22 23 1
27 9 23 1
28 24 25 1
29 14 26 ar
30 11 27 ar
31 16 27 ar
32 28 29 1
33 28 32 1
34 29 30 1
35 30 31 1
36 31 32 1
37 17 33 2
@<TRIPOS>SUBSTRUCTURE
1	RES1	1	GROUP	1 ****	RES
