# created with PyMOL 2.5.2
@<TRIPOS>MOLECULE
CDK6_2EUF_TargetProtein
33 37 1                 
SMALL
USER_CHARGES
@<TRIPOS>ATOM
1	  C1	34.716	27.594	59.467	C.3	1	RES1	0.000	
2	  N1	31.371	22.956	63.577	N.2	1	RES1	0.000	
3	  O1	32.660	28.698	59.990	O.2	1	RES1	0.000	
4	  C2	33.302	27.629	59.949	C.2	1	RES1	0.000	
5	  N2	30.238	21.024	62.788	N.pl3	1	RES1	0.000	
6	  C3	32.651	26.338	60.360	C.2	1	RES1	0.000	
7	  N3	27.877	16.925	59.624	N.pl3	1	RES1	0.000	
8	  C4	32.623	25.963	61.636	C.2	1	RES1	0.000	
9	  N4	26.609	14.648	58.328	N.3	1	RES1	0.000	
10	  C5	33.152	26.824	62.795	C.3	1	RES1	0.000	
11	  C6	31.988	24.662	61.985	C.2	1	RES1	0.000	
12	  C7	31.918	24.163	63.283	C.2	1	RES1	0.000	
13	  C8	30.835	22.251	62.582	C.2	1	RES1	0.000	
14	  N8	29.414	18.850	62.506	N.2	1	RES1	0.000	
15	  C9	29.658	20.060	61.948	C.2	1	RES1	0.000	
16	  N9	30.848	22.677	61.307	N.2	1	RES1	0.000	
17	 C10	29.338	20.293	60.615	C.2	1	RES1	0.000	
18	 N10	31.442	24.290	59.655	N.2	1	RES1	0.000	
19	 O10	32.172	25.869	58.124	O.2	1	RES1	0.000	
20	 C11	28.722	19.284	59.843	C.2	1	RES1	0.000	
21	 C12	28.475	18.011	60.391	C.2	1	RES1	0.000	
22	 C13	28.577	15.662	59.516	C.3	1	RES1	0.000	
23	 C14	28.092	14.802	58.341	C.3	1	RES1	0.000	
24	 C46	26.002	16.000	58.285	C.3	1	RES1	0.000	
25	 C47	26.413	16.894	59.451	C.3	1	RES1	0.000	
26	 C48	28.856	17.885	61.744	C.2	1	RES1	0.000	
27	 C49	31.418	23.870	60.990	C.2	1	RES1	0.000	
28	 C50	30.844	23.459	58.582	C.3	1	RES1	0.000	
29	 C51	29.979	24.203	57.579	C.3	1	RES1	0.000	
30	 C52	28.652	23.447	57.469	C.3	1	RES1	0.000	
31	 C53	29.000	22.053	57.964	C.3	1	RES1	0.000	
32	 C54	29.989	22.294	59.068	C.3	1	RES1	0.000	
33	 C55	32.070	25.486	59.285	C.2	1	RES1	0.000	
@<TRIPOS>BOND
1 1 4 1
2 2 12 ar
3 2 13 ar
4 3 4 2
5 4 6 1
6 5 13 1
7 5 15 1
8 6 8 ar
9 6 33 ar
10 7 25 1
11 8 10 1
12 8 11 ar
13 9 24 1
14 11 12 ar
15 13 16 ar
16 14 15 ar
17 15 17 ar
18 17 20 ar
19 18 27 ar
20 18 28 1
21 18 33 ar
22 19 33 2
23 20 21 ar
24 7 21 1
25 21 26 ar
26 7 22 1
27 22 23 1
28 9 23 1
29 24 25 1
30 14 26 ar
31 11 27 ar
32 16 27 ar
33 28 29 1
34 28 32 1
35 29 30 1
36 30 31 1
37 31 32 1
@<TRIPOS>SUBSTRUCTURE
1	RES1	1	GROUP	1 ****	RES
