# created with PyMOL 2.5.2
@<TRIPOS>MOLECULE
BRD4_6DL2_TargetProtein
22 25 1                 
SMALL
USER_CHARGES
@<TRIPOS>ATOM
1	  C1	11.838	4.644	-2.667	C.3	1	RES1	0.000	
2	  N1	13.552	3.934	-1.090	N.2	1	RES1	0.000	
3	  O1	12.288	6.203	2.474	O.3	1	RES1	0.000	
4	  S1	9.310	5.354	-1.020	S.2	1	RES1	0.000	
5	  C2	12.375	4.466	-1.306	C.2	1	RES1	0.000	
6	  N2	13.800	3.985	0.244	N.2	1	RES1	0.000	
7	  C3	12.794	4.599	0.839	C.2	1	RES1	0.000	
8	  C4	12.711	4.862	2.299	C.3	1	RES1	0.000	
9	  C5	10.879	6.287	2.606	C.3	1	RES1	0.000	
10	  C6	10.074	6.046	1.370	C.2	1	RES1	0.000	
11	  C7	10.534	5.447	0.191	C.2	1	RES1	0.000	
12	  C8	8.156	6.131	0.006	C.2	1	RES1	0.000	
13	  N8	11.799	4.867	-0.086	N.2	1	RES1	0.000	
14	  C9	6.813	6.409	-0.527	C.3	1	RES1	0.000	
15	 C29	8.672	6.402	1.280	C.2	1	RES1	0.000	
16	 C30	7.868	7.084	2.343	C.3	1	RES1	0.000	
17	 C31	7.614	6.062	3.450	C.2	1	RES1	0.000	
18	 C32	7.001	4.826	3.190	C.2	1	RES1	0.000	
19	 C33	6.752	3.911	4.231	C.2	1	RES1	0.000	
20	 C34	7.133	4.239	5.520	C.2	1	RES1	0.000	
21	 C35	7.739	5.458	5.814	C.2	1	RES1	0.000	
22	 C36	7.965	6.359	4.775	C.2	1	RES1	0.000	
@<TRIPOS>BOND
1 1 5 1
2 2 5 ar
3 2 6 ar
4 3 8 1
5 3 9 1
6 4 11 ar
7 4 12 ar
8 5 13 ar
9 6 7 ar
10 7 8 1
11 7 13 ar
12 9 10 1
13 10 11 ar
14 11 13 1
15 12 14 1
16 10 15 ar
17 12 15 ar
18 15 16 1
19 16 17 1
20 17 18 ar
21 17 22 ar
22 18 19 ar
23 19 20 ar
24 20 21 ar
25 21 22 ar
@<TRIPOS>SUBSTRUCTURE
1	RES1	1	GROUP	1 ****	RES
