# created with PyMOL 2.5.2
@<TRIPOS>MOLECULE
CDK6_2EUF_TargetProtein
33 37 1                 
SMALL
USER_CHARGES
@<TRIPOS>ATOM
1	  C1	34.600	27.661	59.418	C.3	1	RES1	0.000	
2	  N1	31.436	22.937	63.602	N.2	1	RES1	0.000	
3	  O1	32.547	28.685	60.060	O.2	1	RES1	0.000	
4	  C2	33.193	27.648	59.957	C.2	1	RES1	0.000	
5	  N2	30.280	20.998	62.811	N.pl3	1	RES1	0.000	
6	  C3	32.594	26.347	60.345	C.2	1	RES1	0.000	
7	  N3	27.839	16.967	59.691	N.pl3	1	RES1	0.000	
8	  C4	32.648	25.964	61.642	C.2	1	RES1	0.000	
9	  N4	26.792	14.864	57.966	N.3	1	RES1	0.000	
10	  C5	33.287	26.747	62.764	C.3	1	RES1	0.000	
11	  C6	32.036	24.662	61.980	C.2	1	RES1	0.000	
12	  C7	31.977	24.152	63.268	C.2	1	RES1	0.000	
13	  C8	30.895	22.232	62.591	C.2	1	RES1	0.000	
14	  N8	29.476	18.824	62.513	N.2	1	RES1	0.000	
15	  C9	29.663	20.064	61.973	C.2	1	RES1	0.000	
16	  N9	30.885	22.667	61.320	N.2	1	RES1	0.000	
17	 C10	29.269	20.301	60.653	C.2	1	RES1	0.000	
18	 N10	31.452	24.269	59.632	N.2	1	RES1	0.000	
19	 C11	28.675	19.292	59.902	C.2	1	RES1	0.000	
20	 O11	32.036	25.925	58.118	O.2	1	RES1	0.000	
21	 C12	28.438	18.029	60.433	C.2	1	RES1	0.000	
22	 C13	28.570	15.669	59.533	C.3	1	RES1	0.000	
23	 C14	27.623	14.527	59.108	C.3	1	RES1	0.000	
24	 C52	25.988	16.054	58.271	C.3	1	RES1	0.000	
25	 C53	26.829	17.271	58.636	C.3	1	RES1	0.000	
26	 C54	28.915	17.871	61.746	C.2	1	RES1	0.000	
27	 C55	31.459	23.842	61.017	C.2	1	RES1	0.000	
28	 C56	30.842	23.418	58.579	C.3	1	RES1	0.000	
29	 C57	29.932	24.160	57.570	C.3	1	RES1	0.000	
30	 C58	28.647	23.341	57.529	C.3	1	RES1	0.000	
31	 C59	29.045	21.944	58.025	C.3	1	RES1	0.000	
32	 C60	30.020	22.225	59.120	C.3	1	RES1	0.000	
33	 C61	32.020	25.512	59.263	C.2	1	RES1	0.000	
@<TRIPOS>BOND
1 1 4 1
2 2 12 ar
3 2 13 ar
4 3 4 2
5 4 6 1
6 5 13 1
7 5 15 1
8 6 8 ar
9 6 33 ar
10 7 25 1
11 8 10 1
12 8 11 ar
13 9 24 1
14 11 12 ar
15 13 16 ar
16 14 15 ar
17 15 17 ar
18 17 19 ar
19 18 27 ar
20 18 28 1
21 18 33 ar
22 19 21 ar
23 20 33 2
24 7 21 1
25 21 26 ar
26 7 22 1
27 22 23 1
28 9 23 1
29 24 25 1
30 14 26 ar
31 11 27 ar
32 16 27 ar
33 28 29 1
34 28 32 1
35 29 30 1
36 30 31 1
37 31 32 1
@<TRIPOS>SUBSTRUCTURE
1	RES1	1	GROUP	1 ****	RES
