# created with PyMOL 2.5.2
@<TRIPOS>MOLECULE
CDK6_2EUF_TargetProtein
33 37 1                 
SMALL
USER_CHARGES
@<TRIPOS>ATOM
1	  C1	34.385	27.847	59.510	C.3	1	RES1	0.000	
2	  N1	31.557	22.668	63.429	N.2	1	RES1	0.000	
3	  O1	32.403	28.770	60.515	O.2	1	RES1	0.000	
4	  C2	33.035	27.770	60.202	C.2	1	RES1	0.000	
5	  N2	30.287	20.835	62.732	N.pl3	1	RES1	0.000	
6	  C3	32.491	26.415	60.499	C.2	1	RES1	0.000	
7	  N3	27.644	16.668	60.048	N.pl3	1	RES1	0.000	
8	  C4	32.680	25.840	61.699	C.2	1	RES1	0.000	
9	  N4	26.465	14.504	58.470	N.3	1	RES1	0.000	
10	  C5	33.493	26.465	62.802	C.3	1	RES1	0.000	
11	  C6	32.073	24.522	61.949	C.2	1	RES1	0.000	
12	  C7	32.103	23.874	63.179	C.2	1	RES1	0.000	
13	  C8	30.894	22.068	62.434	C.2	1	RES1	0.000	
14	  N8	29.476	18.677	62.622	N.2	1	RES1	0.000	
15	  C9	29.627	19.846	61.992	C.2	1	RES1	0.000	
16	  N9	30.794	22.636	61.193	N.2	1	RES1	0.000	
17	 C10	29.148	20.051	60.689	C.2	1	RES1	0.000	
18	 N10	31.252	24.408	59.682	N.2	1	RES1	0.000	
19	 C11	28.497	18.992	60.053	C.2	1	RES1	0.000	
20	 C12	28.321	17.733	60.672	C.2	1	RES1	0.000	
21	 C13	28.362	15.381	59.864	C.3	1	RES1	0.000	
22	 O13	31.514	26.327	58.354	O.2	1	RES1	0.000	
23	 C14	27.403	14.207	59.557	C.3	1	RES1	0.000	
24	 C50	25.684	15.688	58.836	C.3	1	RES1	0.000	
25	 C51	26.559	16.929	59.063	C.3	1	RES1	0.000	
26	 C52	28.827	17.684	61.985	C.2	1	RES1	0.000	
27	 C53	31.366	23.837	60.970	C.2	1	RES1	0.000	
28	 C54	30.556	23.640	58.587	C.3	1	RES1	0.000	
29	 C55	31.456	23.072	57.478	C.3	1	RES1	0.000	
30	 C56	30.904	23.615	56.193	C.3	1	RES1	0.000	
31	 C57	29.457	23.903	56.477	C.3	1	RES1	0.000	
32	 C58	29.501	24.470	57.877	C.3	1	RES1	0.000	
33	 C59	31.687	25.722	59.413	C.2	1	RES1	0.000	
@<TRIPOS>BOND
1 1 4 1
2 2 12 ar
3 2 13 ar
4 3 4 2
5 4 6 1
6 5 13 1
7 5 15 1
8 6 8 ar
9 6 33 ar
10 7 25 1
11 8 10 1
12 8 11 ar
13 9 24 1
14 11 12 ar
15 13 16 ar
16 14 15 ar
17 15 17 ar
18 17 19 ar
19 18 27 ar
20 18 28 1
21 18 33 ar
22 19 20 ar
23 7 20 1
24 20 26 ar
25 7 21 1
26 21 23 1
27 22 33 2
28 9 23 1
29 24 25 1
30 14 26 ar
31 11 27 ar
32 16 27 ar
33 28 29 1
34 28 32 1
35 29 30 1
36 30 31 1
37 31 32 1
@<TRIPOS>SUBSTRUCTURE
1	RES1	1	GROUP	1 ****	RES
