# created with PyMOL 2.5.2
@<TRIPOS>MOLECULE
BRAF_5CSX_TargetProtein
41 45 1                 
SMALL
USER_CHARGES
@<TRIPOS>ATOM
1	  C1	22.651	-69.236	85.761	C.3	1	RES1	0.000	
2	  N1	20.473	-70.164	90.375	N.pl3	1	RES1	0.000	
3	  O1	23.016	-69.893	90.409	O.2	1	RES1	0.000	
4	  S1	21.981	-70.478	89.583	S.O2	1	RES1	0.000	
5	  C2	22.942	-69.790	87.129	C.3	1	RES1	0.000	
6	  N2	17.566	-73.962	89.390	N.2	1	RES1	0.000	
7	  O2	22.066	-71.900	89.223	O.2	1	RES1	0.000	
8	  C3	21.794	-69.521	88.118	C.3	1	RES1	0.000	
9	  N3	17.343	-78.318	85.723	N.2	1	RES1	0.000	
10	  O3	15.680	-84.119	92.601	O.2	1	RES1	0.000	
11	  C4	19.270	-70.682	89.744	C.2	1	RES1	0.000	
12	  N4	16.203	-79.494	87.503	N.2	1	RES1	0.000	
13	  C5	18.412	-69.847	89.037	C.2	1	RES1	0.000	
14	  N5	16.846	-76.983	91.080	N.2	1	RES1	0.000	
15	  C6	17.259	-70.378	88.465	C.2	1	RES1	0.000	
16	  N6	16.554	-77.695	93.340	N.pl3	1	RES1	0.000	
17	  C7	16.972	-71.728	88.576	C.2	1	RES1	0.000	
18	  N7	15.626	-81.847	92.943	N.pl3	1	RES1	0.000	
19	  C8	17.833	-72.584	89.277	C.2	1	RES1	0.000	
20	  C9	17.486	-74.799	88.305	C.2	1	RES1	0.000	
21	 C10	17.207	-76.081	88.749	C.2	1	RES1	0.000	
22	 C11	16.999	-77.259	87.890	C.2	1	RES1	0.000	
23	 C12	17.487	-77.293	86.550	C.2	1	RES1	0.000	
24	 C13	16.712	-79.386	86.269	C.2	1	RES1	0.000	
25	 C14	16.368	-78.413	88.295	C.2	1	RES1	0.000	
26	 C15	17.087	-76.006	90.180	C.2	1	RES1	0.000	
27	 C16	16.820	-76.658	92.395	C.2	1	RES1	0.000	
28	 C17	16.586	-77.404	94.795	C.3	1	RES1	0.000	
29	 C18	16.030	-78.969	92.851	C.3	1	RES1	0.000	
30	 C19	15.082	-79.637	93.873	C.3	1	RES1	0.000	
31	 C20	14.531	-80.969	93.331	C.3	1	RES1	0.000	
32	 C21	15.815	-83.168	93.334	C.2	1	RES1	0.000	
33	 C22	16.235	-83.354	94.793	C.3	1	RES1	0.000	
34	 C49	16.559	-81.277	91.933	C.3	1	RES1	0.000	
35	 C50	17.134	-79.958	92.446	C.3	1	RES1	0.000	
36	 C51	17.074	-75.353	92.806	C.2	1	RES1	0.000	
37	 C52	17.350	-74.322	91.898	C.2	1	RES1	0.000	
38	 C53	17.348	-74.673	90.534	C.2	1	RES1	0.000	
39	 C54	19.010	-72.038	89.841	C.2	1	RES1	0.000	
40	  F1	15.865	-72.208	88.025	 F	1	RES1	0.000	
41	  F2	19.837	-72.845	90.546	 F	1	RES1	0.000	
@<TRIPOS>BOND
1 1 5 1
2 2 4 1
3 2 11 1
4 3 4 2
5 4 7 2
6 4 8 1
7 5 8 1
8 6 19 1
9 6 20 ar
10 6 38 ar
11 11 13 ar
12 11 39 ar
13 13 15 ar
14 15 17 ar
15 17 19 ar
16 20 21 ar
17 21 22 1
18 21 26 ar
19 22 23 ar
20 22 25 ar
21 9 23 ar
22 9 24 ar
23 12 24 ar
24 12 25 ar
25 14 26 ar
26 26 38 ar
27 14 27 ar
28 16 27 1
29 27 36 ar
30 16 28 1
31 16 29 1
32 29 30 1
33 29 35 1
34 30 31 1
35 18 31 1
36 10 32 2
37 18 32 1
38 32 33 1
39 18 34 1
40 34 35 1
41 36 37 ar
42 37 38 ar
43 19 39 ar
44 17 40 1
45 39 41 1
@<TRIPOS>SUBSTRUCTURE
1	RES1	1	GROUP	1 ****	RES
