# created with PyMOL 2.5.2
@<TRIPOS>MOLECULE
BRAF_5CSX_TargetProtein
41 45 1                 
SMALL
USER_CHARGES
@<TRIPOS>ATOM
1	  C1	22.702	-69.220	85.742	C.3	1	RES1	0.000	
2	  N1	20.486	-70.197	90.381	N.pl3	1	RES1	0.000	
3	  O1	23.082	-70.047	90.404	O.2	1	RES1	0.000	
4	  S1	22.000	-70.566	89.605	S.O2	1	RES1	0.000	
5	  C2	22.956	-69.794	87.109	C.3	1	RES1	0.000	
6	  N2	17.564	-73.960	89.379	N.2	1	RES1	0.000	
7	  O2	21.919	-71.941	89.188	O.2	1	RES1	0.000	
8	  C3	21.845	-69.541	88.123	C.3	1	RES1	0.000	
9	  N3	17.300	-78.333	85.721	N.2	1	RES1	0.000	
10	  O3	15.600	-84.128	92.624	O.2	1	RES1	0.000	
11	  C4	19.254	-70.671	89.801	C.2	1	RES1	0.000	
12	  N4	16.275	-79.514	87.538	N.2	1	RES1	0.000	
13	  C5	18.384	-69.838	89.053	C.2	1	RES1	0.000	
14	  N5	16.868	-76.965	91.072	N.2	1	RES1	0.000	
15	  C6	17.235	-70.372	88.500	C.2	1	RES1	0.000	
16	  N6	16.551	-77.673	93.332	N.pl3	1	RES1	0.000	
17	  C7	16.962	-71.718	88.598	C.2	1	RES1	0.000	
18	  N7	15.663	-81.842	92.916	N.pl3	1	RES1	0.000	
19	  C8	17.838	-72.563	89.284	C.2	1	RES1	0.000	
20	  C9	17.467	-74.792	88.313	C.2	1	RES1	0.000	
21	 C10	17.170	-76.068	88.750	C.2	1	RES1	0.000	
22	 C11	17.024	-77.234	87.902	C.2	1	RES1	0.000	
23	 C12	17.442	-77.257	86.552	C.2	1	RES1	0.000	
24	 C13	16.692	-79.399	86.255	C.2	1	RES1	0.000	
25	 C14	16.428	-78.419	88.322	C.2	1	RES1	0.000	
26	 C15	17.121	-75.975	90.175	C.2	1	RES1	0.000	
27	 C16	16.813	-76.642	92.391	C.2	1	RES1	0.000	
28	 C17	16.605	-77.409	94.776	C.3	1	RES1	0.000	
29	 C18	16.040	-78.979	92.819	C.3	1	RES1	0.000	
30	 C19	15.076	-79.611	93.869	C.3	1	RES1	0.000	
31	 C20	14.541	-80.929	93.346	C.3	1	RES1	0.000	
32	 C21	15.813	-83.151	93.332	C.2	1	RES1	0.000	
33	 C22	16.246	-83.391	94.764	C.3	1	RES1	0.000	
34	 C53	16.591	-81.238	91.944	C.3	1	RES1	0.000	
35	 C54	17.162	-79.963	92.452	C.3	1	RES1	0.000	
36	 C55	17.020	-75.315	92.791	C.2	1	RES1	0.000	
37	 C56	17.276	-74.302	91.893	C.2	1	RES1	0.000	
38	 C57	17.343	-74.657	90.539	C.2	1	RES1	0.000	
39	 C58	18.984	-72.033	89.865	C.2	1	RES1	0.000	
40	  F1	15.838	-72.204	88.026	 F	1	RES1	0.000	
41	  F2	19.857	-72.864	90.504	 F	1	RES1	0.000	
@<TRIPOS>BOND
1 1 5 1
2 2 4 1
3 2 11 1
4 3 4 2
5 4 7 2
6 4 8 1
7 5 8 1
8 6 19 1
9 6 20 ar
10 6 38 ar
11 11 13 ar
12 11 39 ar
13 13 15 ar
14 15 17 ar
15 17 19 ar
16 20 21 ar
17 21 22 1
18 21 26 ar
19 22 23 ar
20 22 25 ar
21 9 23 ar
22 9 24 ar
23 12 24 ar
24 12 25 ar
25 14 26 ar
26 26 38 ar
27 14 27 ar
28 16 27 1
29 27 36 ar
30 16 28 1
31 16 29 1
32 29 30 1
33 29 35 1
34 30 31 1
35 18 31 1
36 10 32 2
37 18 32 1
38 32 33 1
39 18 34 1
40 34 35 1
41 36 37 ar
42 37 38 ar
43 19 39 ar
44 17 40 1
45 39 41 1
@<TRIPOS>SUBSTRUCTURE
1	RES1	1	GROUP	1 ****	RES
