# created with PyMOL 2.5.2
@<TRIPOS>MOLECULE
BRAF_5CSX_TargetProtein
41 45 1                 
SMALL
USER_CHARGES
@<TRIPOS>ATOM
1	  C1	22.558	-69.215	85.777	C.3	1	RES1	0.000	
2	  N1	20.476	-70.184	90.421	N.pl3	1	RES1	0.000	
3	  O1	23.095	-70.065	90.381	O.2	1	RES1	0.000	
4	  S1	21.981	-70.520	89.622	S.O2	1	RES1	0.000	
5	  C2	22.878	-69.799	87.134	C.3	1	RES1	0.000	
6	  N2	17.584	-73.967	89.359	N.2	1	RES1	0.000	
7	  O2	21.862	-71.919	89.215	O.2	1	RES1	0.000	
8	  C3	21.773	-69.560	88.158	C.3	1	RES1	0.000	
9	  N3	16.208	-79.514	87.504	N.2	1	RES1	0.000	
10	  O3	15.454	-84.138	92.732	O.2	1	RES1	0.000	
11	  C4	19.248	-70.680	89.812	C.2	1	RES1	0.000	
12	  N4	17.400	-78.346	85.754	N.2	1	RES1	0.000	
13	  C5	18.387	-69.835	89.111	C.2	1	RES1	0.000	
14	  N5	16.878	-76.966	91.070	N.2	1	RES1	0.000	
15	  C6	17.245	-70.368	88.477	C.2	1	RES1	0.000	
16	  N6	16.568	-77.687	93.336	N.pl3	1	RES1	0.000	
17	  C7	16.954	-71.713	88.570	C.2	1	RES1	0.000	
18	  N7	15.675	-81.835	92.890	N.pl3	1	RES1	0.000	
19	  C8	17.827	-72.585	89.276	C.2	1	RES1	0.000	
20	  C9	17.510	-74.813	88.285	C.2	1	RES1	0.000	
21	 C10	17.217	-76.099	88.753	C.2	1	RES1	0.000	
22	 C11	17.029	-77.247	87.882	C.2	1	RES1	0.000	
23	 C12	16.377	-78.410	88.304	C.2	1	RES1	0.000	
24	 C13	16.755	-79.419	86.263	C.2	1	RES1	0.000	
25	 C14	17.530	-77.298	86.580	C.2	1	RES1	0.000	
26	 C15	17.124	-75.999	90.157	C.2	1	RES1	0.000	
27	 C16	16.865	-76.641	92.383	C.2	1	RES1	0.000	
28	 C17	16.670	-77.400	94.776	C.3	1	RES1	0.000	
29	 C18	16.030	-78.965	92.819	C.3	1	RES1	0.000	
30	 C19	15.107	-79.622	93.865	C.3	1	RES1	0.000	
31	 C20	14.556	-80.935	93.346	C.3	1	RES1	0.000	
32	 C21	15.722	-83.139	93.386	C.2	1	RES1	0.000	
33	 C22	16.122	-83.287	94.818	C.3	1	RES1	0.000	
34	 C48	16.576	-81.257	91.915	C.3	1	RES1	0.000	
35	 C49	17.156	-79.926	92.404	C.3	1	RES1	0.000	
36	 C50	17.087	-75.320	92.798	C.2	1	RES1	0.000	
37	 C51	17.347	-74.309	91.861	C.2	1	RES1	0.000	
38	 C52	17.375	-74.656	90.519	C.2	1	RES1	0.000	
39	 C53	18.974	-72.046	89.869	C.2	1	RES1	0.000	
40	  F1	15.888	-72.200	87.953	 F	1	RES1	0.000	
41	  F2	19.824	-72.860	90.548	 F	1	RES1	0.000	
@<TRIPOS>BOND
1 1 5 1
2 2 4 1
3 2 11 1
4 3 4 2
5 4 7 2
6 4 8 1
7 5 8 1
8 6 19 1
9 6 20 ar
10 6 38 ar
11 11 13 ar
12 11 39 ar
13 13 15 ar
14 15 17 ar
15 17 19 ar
16 20 21 ar
17 21 22 1
18 21 26 ar
19 22 23 ar
20 22 25 ar
21 9 23 ar
22 9 24 ar
23 12 24 ar
24 12 25 ar
25 14 26 ar
26 26 38 ar
27 14 27 ar
28 16 27 1
29 27 36 ar
30 16 28 1
31 16 29 1
32 29 30 1
33 29 35 1
34 30 31 1
35 18 31 1
36 10 32 2
37 18 32 1
38 32 33 1
39 18 34 1
40 34 35 1
41 36 37 ar
42 37 38 ar
43 19 39 ar
44 17 40 1
45 39 41 1
@<TRIPOS>SUBSTRUCTURE
1	RES1	1	GROUP	1 ****	RES
