# created with PyMOL 2.5.2
@<TRIPOS>MOLECULE
BRAF_4XV2_TargetProtein
35 38 1                 
SMALL
USER_CHARGES
@<TRIPOS>ATOM
1	  C1	4.993	-4.935	-24.745	C.3	1	RES1	0.000	
2	  N1	1.744	-3.705	-23.317	N.2	1	RES1	0.000	
3	  O1	-4.843	-2.975	-21.616	O.2	1	RES1	0.000	
4	  S1	-4.620	-4.185	-20.853	S.O2	1	RES1	0.000	
5	  C2	3.503	-4.592	-24.879	C.3	1	RES1	0.000	
6	  N2	-2.919	-4.458	-20.787	N.pl3	1	RES1	0.000	
7	  O2	-5.307	-5.410	-21.191	O.2	1	RES1	0.000	
8	  S2	4.117	-3.378	-22.372	S.2	1	RES1	0.000	
9	  C3	3.295	-3.681	-26.082	C.3	1	RES1	0.000	
10	  N3	3.649	-1.156	-17.704	N.2	1	RES1	0.000	
11	  C4	2.725	-5.893	-25.113	C.3	1	RES1	0.000	
12	  N4	5.850	-1.010	-18.376	N.pl3	1	RES1	0.000	
13	  C5	2.985	-3.919	-23.594	C.2	1	RES1	0.000	
14	  C6	1.602	-3.083	-22.115	C.2	1	RES1	0.000	
15	  C7	0.285	-2.727	-21.612	C.2	1	RES1	0.000	
16	  C8	0.008	-1.424	-21.223	C.2	1	RES1	0.000	
17	  C9	-1.245	-1.069	-20.737	C.2	1	RES1	0.000	
18	  N9	4.296	-1.921	-19.844	N.2	1	RES1	0.000	
19	 C10	-2.242	-2.059	-20.606	C.2	1	RES1	0.000	
20	 C11	-1.996	-3.380	-20.987	C.2	1	RES1	0.000	
21	 C12	-5.020	-3.758	-19.164	C.2	1	RES1	0.000	
22	 C13	-5.522	-2.497	-18.907	C.2	1	RES1	0.000	
23	 C14	-5.872	-2.146	-17.595	C.2	1	RES1	0.000	
24	 C15	-5.728	-3.069	-16.559	C.2	1	RES1	0.000	
25	 C16	-5.222	-4.345	-16.840	C.2	1	RES1	0.000	
26	 C17	-4.877	-4.690	-18.132	C.2	1	RES1	0.000	
27	 C18	-0.726	-3.689	-21.467	C.2	1	RES1	0.000	
28	 C19	2.798	-2.829	-21.415	C.2	1	RES1	0.000	
29	 C20	3.015	-2.254	-20.106	C.2	1	RES1	0.000	
30	 C21	1.973	-2.058	-19.174	C.2	1	RES1	0.000	
31	 C22	2.382	-1.530	-17.959	C.2	1	RES1	0.000	
32	 C23	4.550	-1.369	-18.633	C.2	1	RES1	0.000	
33	  F1	-5.640	-1.592	-19.856	 F	1	RES1	0.000	
34	  F2	-4.377	-5.921	-18.346	 F	1	RES1	0.000	
35	  F3	-0.448	-4.967	-21.799	 F	1	RES1	0.000	
@<TRIPOS>BOND
1 1 5 1
2 2 13 ar
3 2 14 ar
4 3 4 2
5 4 6 1
6 4 7 2
7 4 21 1
8 5 9 1
9 5 11 1
10 5 13 1
11 8 13 ar
12 14 15 1
13 15 16 ar
14 16 17 ar
15 17 19 ar
16 19 20 ar
17 6 20 1
18 20 27 ar
19 21 22 ar
20 21 26 ar
21 22 23 ar
22 23 24 ar
23 24 25 ar
24 25 26 ar
25 26 34 1
26 15 27 ar
27 27 35 1
28 8 28 ar
29 14 28 ar
30 28 29 1
31 18 29 ar
32 29 30 ar
33 30 31 ar
34 10 31 ar
35 10 32 ar
36 12 32 1
37 18 32 ar
38 22 33 1
@<TRIPOS>SUBSTRUCTURE
1	RES1	1	GROUP	1 ****	RES
