# created with PyMOL 2.5.2
@<TRIPOS>MOLECULE
BRAF_4XV2_TargetProtein
35 38 1                 
SMALL
USER_CHARGES
@<TRIPOS>ATOM
1	  C1	4.938	-4.942	-24.741	C.3	1	RES1	0.000	
2	  N1	1.702	-3.714	-23.238	N.2	1	RES1	0.000	
3	  O1	-5.411	-5.239	-21.362	O.2	1	RES1	0.000	
4	  S1	-4.630	-4.099	-20.956	S.O2	1	RES1	0.000	
5	  C2	3.425	-4.587	-24.808	C.3	1	RES1	0.000	
6	  N2	-2.978	-4.566	-20.820	N.pl3	1	RES1	0.000	
7	  O2	-4.675	-2.859	-21.690	O.2	1	RES1	0.000	
8	  S2	4.070	-3.326	-22.350	S.2	1	RES1	0.000	
9	  C3	3.204	-3.686	-26.038	C.3	1	RES1	0.000	
10	  N3	3.786	-1.082	-17.688	N.2	1	RES1	0.000	
11	  C4	2.655	-5.898	-25.040	C.3	1	RES1	0.000	
12	  N4	5.969	-0.948	-18.494	N.pl3	1	RES1	0.000	
13	  C5	2.957	-3.929	-23.556	C.2	1	RES1	0.000	
14	  C6	1.587	-3.118	-22.017	C.2	1	RES1	0.000	
15	  C7	0.244	-2.783	-21.523	C.2	1	RES1	0.000	
16	  C8	-0.119	-1.455	-21.218	C.2	1	RES1	0.000	
17	  C9	-1.397	-1.158	-20.778	C.2	1	RES1	0.000	
18	  N9	4.334	-1.875	-19.883	N.2	1	RES1	0.000	
19	 C10	-2.339	-2.172	-20.638	C.2	1	RES1	0.000	
20	 C11	-1.979	-3.502	-20.916	C.2	1	RES1	0.000	
21	 C12	-5.044	-3.718	-19.237	C.2	1	RES1	0.000	
22	 C13	-5.444	-2.422	-18.874	C.2	1	RES1	0.000	
23	 C14	-5.719	-2.162	-17.536	C.2	1	RES1	0.000	
24	 C15	-5.647	-3.195	-16.578	C.2	1	RES1	0.000	
25	 C16	-5.249	-4.461	-16.947	C.2	1	RES1	0.000	
26	 C17	-4.927	-4.719	-18.279	C.2	1	RES1	0.000	
27	 C18	-0.692	-3.787	-21.354	C.2	1	RES1	0.000	
28	 C19	2.757	-2.804	-21.368	C.2	1	RES1	0.000	
29	 C20	3.031	-2.201	-20.072	C.2	1	RES1	0.000	
30	 C21	2.081	-2.014	-19.099	C.2	1	RES1	0.000	
31	 C22	2.500	-1.461	-17.913	C.2	1	RES1	0.000	
32	 C23	4.654	-1.327	-18.716	C.2	1	RES1	0.000	
33	  F1	-5.547	-1.432	-19.743	 F	1	RES1	0.000	
34	  F2	-4.550	-5.965	-18.613	 F	1	RES1	0.000	
35	  F3	-0.385	-5.064	-21.618	 F	1	RES1	0.000	
@<TRIPOS>BOND
1 1 5 1
2 2 13 ar
3 2 14 ar
4 3 4 2
5 4 6 1
6 4 7 2
7 4 21 1
8 5 9 1
9 5 11 1
10 5 13 1
11 8 13 ar
12 14 15 1
13 15 16 ar
14 16 17 ar
15 17 19 ar
16 19 20 ar
17 6 20 1
18 20 27 ar
19 21 22 ar
20 21 26 ar
21 22 23 ar
22 23 24 ar
23 24 25 ar
24 25 26 ar
25 26 34 1
26 15 27 ar
27 27 35 1
28 8 28 ar
29 14 28 ar
30 28 29 1
31 18 29 ar
32 29 30 ar
33 30 31 ar
34 10 31 ar
35 10 32 ar
36 12 32 1
37 18 32 ar
38 22 33 1
@<TRIPOS>SUBSTRUCTURE
1	RES1	1	GROUP	1 ****	RES
