# created with PyMOL 2.5.2
@<TRIPOS>MOLECULE
BRAF_4XV2_TargetProtein
35 38 1                 
SMALL
USER_CHARGES
@<TRIPOS>ATOM
1	  C1	3.290	-3.635	-26.030	C.3	1	RES1	0.000	
2	  N1	1.735	-3.699	-23.306	N.2	1	RES1	0.000	
3	  O1	-5.330	-5.360	-21.203	O.2	1	RES1	0.000	
4	  S1	-4.629	-4.125	-20.878	S.O2	1	RES1	0.000	
5	  C2	3.490	-4.611	-24.852	C.3	1	RES1	0.000	
6	  N2	-2.958	-4.470	-20.795	N.pl3	1	RES1	0.000	
7	  O2	-4.835	-2.949	-21.713	O.2	1	RES1	0.000	
8	  S2	4.077	-3.455	-22.315	S.2	1	RES1	0.000	
9	  C3	5.005	-4.912	-24.763	C.3	1	RES1	0.000	
10	  N3	3.669	-1.067	-17.733	N.2	1	RES1	0.000	
11	  C4	2.723	-5.896	-25.151	C.3	1	RES1	0.000	
12	  N4	5.915	-1.052	-18.410	N.pl3	1	RES1	0.000	
13	  C5	2.991	-3.969	-23.564	C.2	1	RES1	0.000	
14	  C6	1.606	-3.099	-22.084	C.2	1	RES1	0.000	
15	  C7	0.283	-2.769	-21.561	C.2	1	RES1	0.000	
16	  C8	-0.025	-1.430	-21.278	C.2	1	RES1	0.000	
17	  C9	-1.285	-1.071	-20.819	C.2	1	RES1	0.000	
18	  N9	4.312	-1.934	-19.857	N.2	1	RES1	0.000	
19	 C10	-2.259	-2.078	-20.639	C.2	1	RES1	0.000	
20	 C11	-1.990	-3.423	-20.919	C.2	1	RES1	0.000	
21	 C12	-5.037	-3.737	-19.186	C.2	1	RES1	0.000	
22	 C13	-4.900	-4.699	-18.204	C.2	1	RES1	0.000	
23	 C14	-5.215	-4.433	-16.892	C.2	1	RES1	0.000	
24	 C15	-5.702	-3.173	-16.544	C.2	1	RES1	0.000	
25	 C16	-5.836	-2.176	-17.524	C.2	1	RES1	0.000	
26	 C17	-5.504	-2.451	-18.826	C.2	1	RES1	0.000	
27	 C18	-0.697	-3.741	-21.409	C.2	1	RES1	0.000	
28	 C19	2.770	-2.888	-21.378	C.2	1	RES1	0.000	
29	 C20	3.018	-2.245	-20.082	C.2	1	RES1	0.000	
30	 C21	2.001	-1.956	-19.165	C.2	1	RES1	0.000	
31	 C22	2.395	-1.361	-17.999	C.2	1	RES1	0.000	
32	 C23	4.591	-1.352	-18.676	C.2	1	RES1	0.000	
33	  F1	-4.406	-5.918	-18.536	 F	1	RES1	0.000	
34	  F2	-5.668	-1.505	-19.739	 F	1	RES1	0.000	
35	  F3	-0.429	-5.031	-21.671	 F	1	RES1	0.000	
@<TRIPOS>BOND
1 1 5 1
2 2 13 ar
3 2 14 ar
4 3 4 2
5 4 6 1
6 4 7 2
7 4 21 1
8 5 9 1
9 5 11 1
10 5 13 1
11 8 13 ar
12 14 15 1
13 15 16 ar
14 16 17 ar
15 17 19 ar
16 19 20 ar
17 6 20 1
18 20 27 ar
19 21 22 ar
20 21 26 ar
21 22 23 ar
22 23 24 ar
23 24 25 ar
24 25 26 ar
25 26 34 1
26 15 27 ar
27 27 35 1
28 8 28 ar
29 14 28 ar
30 28 29 1
31 18 29 ar
32 29 30 ar
33 30 31 ar
34 10 31 ar
35 10 32 ar
36 12 32 1
37 18 32 ar
38 22 33 1
@<TRIPOS>SUBSTRUCTURE
1	RES1	1	GROUP	1 ****	RES
