# created with PyMOL 2.5.2
@<TRIPOS>MOLECULE
BRAF_4XV2_TargetProtein
35 38 1                 
SMALL
USER_CHARGES
@<TRIPOS>ATOM
1	  C1	3.277	-3.663	-26.052	C.3	1	RES1	0.000	
2	  N1	1.721	-3.690	-23.286	N.2	1	RES1	0.000	
3	  O1	-5.419	-5.323	-21.154	O.2	1	RES1	0.000	
4	  S1	-4.645	-4.144	-20.904	S.O2	1	RES1	0.000	
5	  C2	3.503	-4.577	-24.817	C.3	1	RES1	0.000	
6	  N2	-2.987	-4.588	-20.843	N.pl3	1	RES1	0.000	
7	  O2	-4.800	-2.958	-21.708	O.2	1	RES1	0.000	
8	  S2	4.065	-3.358	-22.345	S.2	1	RES1	0.000	
9	  C3	2.799	-5.892	-25.093	C.3	1	RES1	0.000	
10	  N3	3.631	-1.143	-17.675	N.2	1	RES1	0.000	
11	  C4	5.026	-4.844	-24.721	C.3	1	RES1	0.000	
12	  N4	5.852	-1.031	-18.360	N.pl3	1	RES1	0.000	
13	  C5	2.996	-3.914	-23.577	C.2	1	RES1	0.000	
14	  C6	1.559	-3.101	-22.083	C.2	1	RES1	0.000	
15	  C7	0.237	-2.774	-21.620	C.2	1	RES1	0.000	
16	  C8	-0.097	-1.470	-21.186	C.2	1	RES1	0.000	
17	  C9	-1.365	-1.225	-20.694	C.2	1	RES1	0.000	
18	  N9	4.247	-1.870	-19.834	N.2	1	RES1	0.000	
19	 C10	-2.308	-2.261	-20.607	C.2	1	RES1	0.000	
20	 C11	-1.989	-3.533	-21.044	C.2	1	RES1	0.000	
21	 C12	-4.985	-3.721	-19.187	C.2	1	RES1	0.000	
22	 C13	-5.379	-2.417	-18.870	C.2	1	RES1	0.000	
23	 C14	-5.643	-2.060	-17.546	C.2	1	RES1	0.000	
24	 C15	-5.525	-3.026	-16.539	C.2	1	RES1	0.000	
25	 C16	-5.121	-4.315	-16.844	C.2	1	RES1	0.000	
26	 C17	-4.868	-4.667	-18.167	C.2	1	RES1	0.000	
27	 C18	-0.734	-3.813	-21.549	C.2	1	RES1	0.000	
28	 C19	2.728	-2.794	-21.395	C.2	1	RES1	0.000	
29	 C20	2.951	-2.190	-20.087	C.2	1	RES1	0.000	
30	 C21	1.944	-2.021	-19.150	C.2	1	RES1	0.000	
31	 C22	2.346	-1.487	-17.930	C.2	1	RES1	0.000	
32	 C23	4.535	-1.357	-18.648	C.2	1	RES1	0.000	
33	  F1	-5.502	-1.483	-19.823	 F	1	RES1	0.000	
34	  F2	-4.474	-5.918	-18.410	 F	1	RES1	0.000	
35	  F3	-0.415	-5.042	-21.949	 F	1	RES1	0.000	
@<TRIPOS>BOND
1 1 5 1
2 2 13 ar
3 2 14 ar
4 3 4 2
5 4 6 1
6 4 7 2
7 4 21 1
8 5 9 1
9 5 11 1
10 5 13 1
11 8 13 ar
12 14 15 1
13 15 16 ar
14 16 17 ar
15 17 19 ar
16 19 20 ar
17 6 20 1
18 20 27 ar
19 21 22 ar
20 21 26 ar
21 22 23 ar
22 23 24 ar
23 24 25 ar
24 25 26 ar
25 26 34 1
26 15 27 ar
27 27 35 1
28 8 28 ar
29 14 28 ar
30 28 29 1
31 18 29 ar
32 29 30 ar
33 30 31 ar
34 10 31 ar
35 10 32 ar
36 12 32 1
37 18 32 ar
38 22 33 1
@<TRIPOS>SUBSTRUCTURE
1	RES1	1	GROUP	1 ****	RES
