# created with PyMOL 2.5.2
@<TRIPOS>MOLECULE
BRAF_4XV2_TargetProtein
35 38 1                 
SMALL
USER_CHARGES
@<TRIPOS>ATOM
1	  C1	3.254	-3.688	-26.094	C.3	1	RES1	0.000	
2	  N1	1.719	-3.704	-23.306	N.2	1	RES1	0.000	
3	  O1	-5.270	-5.398	-21.249	O.2	1	RES1	0.000	
4	  S1	-4.624	-4.183	-20.878	S.O2	1	RES1	0.000	
5	  C2	3.481	-4.596	-24.872	C.3	1	RES1	0.000	
6	  N2	-2.908	-4.448	-20.791	N.pl3	1	RES1	0.000	
7	  O2	-4.827	-2.978	-21.642	O.2	1	RES1	0.000	
8	  S2	4.122	-3.402	-22.384	S.2	1	RES1	0.000	
9	  C3	2.692	-5.918	-25.087	C.3	1	RES1	0.000	
10	  N3	3.639	-1.115	-17.694	N.2	1	RES1	0.000	
11	  C4	4.950	-4.977	-24.777	C.3	1	RES1	0.000	
12	  N4	5.882	-0.995	-18.399	N.pl3	1	RES1	0.000	
13	  C5	2.993	-3.938	-23.598	C.2	1	RES1	0.000	
14	  C6	1.624	-3.070	-22.088	C.2	1	RES1	0.000	
15	  C7	0.296	-2.701	-21.575	C.2	1	RES1	0.000	
16	  C8	0.017	-1.381	-21.193	C.2	1	RES1	0.000	
17	  C9	-1.257	-1.050	-20.732	C.2	1	RES1	0.000	
18	 C10	-2.250	-2.051	-20.598	C.2	1	RES1	0.000	
19	 N10	4.314	-1.925	-19.833	N.2	1	RES1	0.000	
20	 C11	-1.979	-3.360	-20.961	C.2	1	RES1	0.000	
21	 C12	-5.015	-3.769	-19.148	C.2	1	RES1	0.000	
22	 C13	-5.519	-2.494	-18.899	C.2	1	RES1	0.000	
23	 C14	-5.919	-2.192	-17.596	C.2	1	RES1	0.000	
24	 C15	-5.748	-3.120	-16.553	C.2	1	RES1	0.000	
25	 C16	-5.235	-4.362	-16.846	C.2	1	RES1	0.000	
26	 C17	-4.876	-4.686	-18.169	C.2	1	RES1	0.000	
27	 C18	-0.692	-3.682	-21.429	C.2	1	RES1	0.000	
28	 C19	2.810	-2.844	-21.409	C.2	1	RES1	0.000	
29	 C20	3.030	-2.269	-20.102	C.2	1	RES1	0.000	
30	 C21	2.007	-2.046	-19.172	C.2	1	RES1	0.000	
31	 C22	2.370	-1.474	-17.986	C.2	1	RES1	0.000	
32	 C23	4.565	-1.388	-18.660	C.2	1	RES1	0.000	
33	  F1	-5.662	-1.571	-19.844	 F	1	RES1	0.000	
34	  F2	-4.398	-5.926	-18.384	 F	1	RES1	0.000	
35	  F3	-0.423	-4.971	-21.752	 F	1	RES1	0.000	
@<TRIPOS>BOND
1 1 5 1
2 2 13 ar
3 2 14 ar
4 3 4 2
5 4 6 1
6 4 7 2
7 4 21 1
8 5 9 1
9 5 11 1
10 5 13 1
11 8 13 ar
12 14 15 1
13 15 16 ar
14 16 17 ar
15 17 18 ar
16 18 20 ar
17 19 29 ar
18 19 32 ar
19 6 20 1
20 20 27 ar
21 21 22 ar
22 21 26 ar
23 22 23 ar
24 23 24 ar
25 24 25 ar
26 25 26 ar
27 26 34 1
28 15 27 ar
29 27 35 1
30 8 28 ar
31 14 28 ar
32 28 29 1
33 29 30 ar
34 30 31 ar
35 10 31 ar
36 10 32 ar
37 12 32 1
38 22 33 1
@<TRIPOS>SUBSTRUCTURE
1	RES1	1	GROUP	1 ****	RES
