# created with PyMOL 2.5.2
@<TRIPOS>MOLECULE
BRD4_6DL2_TargetProtein
22 25 1                 
SMALL
USER_CHARGES
@<TRIPOS>ATOM
1	  C1	11.438	3.555	-2.267	C.3	1	RES1	0.000	
2	  N1	13.569	3.984	-1.111	N.2	1	RES1	0.000	
3	  O1	12.050	5.317	2.783	O.3	1	RES1	0.000	
4	  S1	9.316	5.459	-0.985	S.2	1	RES1	0.000	
5	  C2	12.278	4.157	-1.198	C.2	1	RES1	0.000	
6	  N2	14.003	4.541	0.032	N.2	1	RES1	0.000	
7	  C3	12.979	5.092	0.657	C.2	1	RES1	0.000	
8	  C4	13.089	5.811	1.922	C.3	1	RES1	0.000	
9	  C5	10.880	6.132	2.696	C.3	1	RES1	0.000	
10	  C6	10.094	5.999	1.423	C.2	1	RES1	0.000	
11	  C7	10.544	5.449	0.218	C.2	1	RES1	0.000	
12	  C8	8.221	6.214	0.056	C.2	1	RES1	0.000	
13	  N8	11.825	4.925	-0.090	N.2	1	RES1	0.000	
14	  C9	6.814	6.472	-0.441	C.3	1	RES1	0.000	
15	 C30	8.745	6.485	1.317	C.2	1	RES1	0.000	
16	 C31	7.948	7.160	2.409	C.3	1	RES1	0.000	
17	 C32	7.591	6.116	3.431	C.2	1	RES1	0.000	
18	 C33	6.923	4.936	3.106	C.2	1	RES1	0.000	
19	 C34	6.633	3.978	4.087	C.2	1	RES1	0.000	
20	 C35	7.041	4.170	5.387	C.2	1	RES1	0.000	
21	 C36	7.710	5.336	5.731	C.2	1	RES1	0.000	
22	 C37	7.985	6.288	4.776	C.2	1	RES1	0.000	
@<TRIPOS>BOND
1 1 5 1
2 2 5 ar
3 2 6 ar
4 3 8 1
5 3 9 1
6 4 11 ar
7 4 12 ar
8 5 13 ar
9 6 7 ar
10 7 8 1
11 7 13 ar
12 9 10 1
13 10 11 ar
14 11 13 1
15 12 14 1
16 10 15 ar
17 12 15 ar
18 15 16 1
19 16 17 1
20 17 18 ar
21 17 22 ar
22 18 19 ar
23 19 20 ar
24 20 21 ar
25 21 22 ar
@<TRIPOS>SUBSTRUCTURE
1	RES1	1	GROUP	1 ****	RES
