# created with PyMOL 2.5.2
@<TRIPOS>MOLECULE
BRAF_4XV2_TargetProtein
35 38 1                 
SMALL
USER_CHARGES
@<TRIPOS>ATOM
1	  C1	2.679	-5.910	-25.139	C.3	1	RES1	0.000	
2	  N1	1.742	-3.689	-23.305	N.2	1	RES1	0.000	
3	  O1	-5.333	-5.324	-21.228	O.2	1	RES1	0.000	
4	  S1	-4.636	-4.114	-20.911	S.O2	1	RES1	0.000	
5	  C2	3.468	-4.626	-24.863	C.3	1	RES1	0.000	
6	  N2	-2.931	-4.455	-20.828	N.pl3	1	RES1	0.000	
7	  O2	-4.832	-2.906	-21.692	O.2	1	RES1	0.000	
8	  S2	4.101	-3.517	-22.337	S.2	1	RES1	0.000	
9	  C3	3.273	-3.666	-26.063	C.3	1	RES1	0.000	
10	  N3	3.649	-0.962	-17.747	N.2	1	RES1	0.000	
11	  C4	4.986	-4.956	-24.775	C.3	1	RES1	0.000	
12	  N4	5.900	-1.027	-18.397	N.pl3	1	RES1	0.000	
13	  C5	3.000	-3.971	-23.586	C.2	1	RES1	0.000	
14	  C6	1.594	-3.137	-22.049	C.2	1	RES1	0.000	
15	  C7	0.314	-2.776	-21.528	C.2	1	RES1	0.000	
16	  C8	0.015	-1.440	-21.229	C.2	1	RES1	0.000	
17	  N8	4.311	-1.943	-19.850	N.2	1	RES1	0.000	
18	  C9	-1.248	-1.085	-20.728	C.2	1	RES1	0.000	
19	 C10	-2.207	-2.049	-20.560	C.2	1	RES1	0.000	
20	 C11	-1.942	-3.410	-20.887	C.2	1	RES1	0.000	
21	 C12	-5.031	-3.709	-19.188	C.2	1	RES1	0.000	
22	 C13	-4.874	-4.703	-18.230	C.2	1	RES1	0.000	
23	 C14	-5.212	-4.467	-16.916	C.2	1	RES1	0.000	
24	 C15	-5.746	-3.232	-16.541	C.2	1	RES1	0.000	
25	 C16	-5.891	-2.209	-17.511	C.2	1	RES1	0.000	
26	 C17	-5.546	-2.468	-18.842	C.2	1	RES1	0.000	
27	 C18	-0.691	-3.748	-21.371	C.2	1	RES1	0.000	
28	 C19	2.799	-2.935	-21.383	C.2	1	RES1	0.000	
29	 C20	3.045	-2.252	-20.082	C.2	1	RES1	0.000	
30	 C21	2.008	-1.963	-19.208	C.2	1	RES1	0.000	
31	 C22	2.362	-1.309	-18.040	C.2	1	RES1	0.000	
32	 C23	4.569	-1.314	-18.670	C.2	1	RES1	0.000	
33	  F1	-4.351	-5.908	-18.568	 F	1	RES1	0.000	
34	  F2	-5.739	-1.477	-19.733	 F	1	RES1	0.000	
35	  F3	-0.446	-5.015	-21.718	 F	1	RES1	0.000	
@<TRIPOS>BOND
1 1 5 1
2 2 13 ar
3 2 14 ar
4 3 4 2
5 4 6 1
6 4 7 2
7 4 21 1
8 5 9 1
9 5 11 1
10 5 13 1
11 8 13 ar
12 14 15 1
13 15 16 ar
14 16 18 ar
15 18 19 ar
16 19 20 ar
17 6 20 1
18 20 27 ar
19 21 22 ar
20 21 26 ar
21 22 23 ar
22 23 24 ar
23 24 25 ar
24 25 26 ar
25 26 34 1
26 15 27 ar
27 27 35 1
28 8 28 ar
29 14 28 ar
30 28 29 1
31 17 29 ar
32 29 30 ar
33 30 31 ar
34 10 31 ar
35 10 32 ar
36 12 32 1
37 17 32 ar
38 22 33 1
@<TRIPOS>SUBSTRUCTURE
1	RES1	1	GROUP	1 ****	RES
