# created with PyMOL 2.5.2
@<TRIPOS>MOLECULE
BRAF_5CSX_TargetProtein
40 44 1                 
SMALL
USER_CHARGES
@<TRIPOS>ATOM
1	  C1	22.693	-69.182	85.672	C.3	1	RES1	0.000	
2	  N1	20.423	-70.108	90.289	N.pl3	1	RES1	0.000	
3	  O1	22.972	-69.673	90.426	O.2	1	RES1	0.000	
4	  S1	21.975	-70.346	89.615	S.O2	1	RES1	0.000	
5	  C2	22.976	-69.659	87.108	C.3	1	RES1	0.000	
6	  N2	17.563	-73.992	89.352	N.2	1	RES1	0.000	
7	  O2	22.114	-71.748	89.296	O.2	1	RES1	0.000	
8	  C3	21.797	-69.443	88.059	C.3	1	RES1	0.000	
9	  N3	16.169	-79.565	87.636	N.2	1	RES1	0.000	
10	  C4	19.277	-70.695	89.664	C.2	1	RES1	0.000	
11	  N4	17.312	-78.463	85.840	N.2	1	RES1	0.000	
12	  C5	18.385	-69.871	88.967	C.2	1	RES1	0.000	
13	  N5	16.877	-76.945	91.128	N.2	1	RES1	0.000	
14	  C6	17.238	-70.409	88.427	C.2	1	RES1	0.000	
15	  N6	16.619	-77.619	93.435	N.pl3	1	RES1	0.000	
16	  C7	16.955	-71.777	88.540	C.2	1	RES1	0.000	
17	  N7	15.965	-81.822	93.175	N.3	1	RES1	0.000	
18	  C8	17.848	-72.584	89.220	C.2	1	RES1	0.000	
19	  C9	17.451	-74.849	88.290	C.2	1	RES1	0.000	
20	 C10	17.189	-76.113	88.801	C.2	1	RES1	0.000	
21	 C11	17.002	-77.300	87.947	C.2	1	RES1	0.000	
22	 C12	16.378	-78.456	88.417	C.2	1	RES1	0.000	
23	 C13	16.669	-79.520	86.397	C.2	1	RES1	0.000	
24	 C14	17.453	-77.379	86.640	C.2	1	RES1	0.000	
25	 C15	17.137	-76.003	90.188	C.2	1	RES1	0.000	
26	 C16	16.897	-76.597	92.452	C.2	1	RES1	0.000	
27	 C17	16.649	-77.269	94.885	C.3	1	RES1	0.000	
28	 C18	16.145	-78.926	92.965	C.3	1	RES1	0.000	
29	 C19	15.259	-79.624	93.988	C.3	1	RES1	0.000	
30	 C20	14.810	-80.974	93.516	C.3	1	RES1	0.000	
31	 C21	15.480	-83.178	92.801	C.3	1	RES1	0.000	
32	 C22	15.044	-84.030	94.000	C.3	1	RES1	0.000	
33	 C47	16.817	-81.206	92.137	C.3	1	RES1	0.000	
34	 C48	17.317	-79.855	92.570	C.3	1	RES1	0.000	
35	 C49	17.127	-75.277	92.801	C.2	1	RES1	0.000	
36	 C50	17.367	-74.275	91.867	C.2	1	RES1	0.000	
37	 C51	17.370	-74.670	90.539	C.2	1	RES1	0.000	
38	 C52	19.013	-72.076	89.803	C.2	1	RES1	0.000	
39	  F1	15.847	-72.249	88.007	 F	1	RES1	0.000	
40	  F2	19.852	-72.854	90.461	 F	1	RES1	0.000	
@<TRIPOS>BOND
1 1 5 1
2 2 4 1
3 2 10 1
4 3 4 2
5 4 7 2
6 4 8 1
7 5 8 1
8 6 18 1
9 6 19 ar
10 6 37 ar
11 10 12 ar
12 10 38 ar
13 12 14 ar
14 14 16 ar
15 16 18 ar
16 19 20 ar
17 20 21 1
18 20 25 ar
19 21 22 ar
20 21 24 ar
21 9 22 ar
22 9 23 ar
23 11 23 ar
24 11 24 ar
25 13 25 ar
26 25 37 ar
27 13 26 ar
28 15 26 1
29 26 35 ar
30 15 27 1
31 15 28 1
32 28 29 1
33 28 34 1
34 29 30 1
35 17 30 1
36 17 31 1
37 31 32 1
38 17 33 1
39 33 34 1
40 35 36 ar
41 36 37 ar
42 18 38 ar
43 16 39 1
44 38 40 1
@<TRIPOS>SUBSTRUCTURE
1	RES1	1	GROUP	1 ****	RES
