# created with PyMOL 2.5.2
@<TRIPOS>MOLECULE
BRAF_5CSX_TargetProtein
40 44 1                 
SMALL
USER_CHARGES
@<TRIPOS>ATOM
1	  C1	22.664	-69.276	85.625	C.3	1	RES1	0.000	
2	  N1	20.442	-70.077	90.310	N.pl3	1	RES1	0.000	
3	  O1	22.018	-71.881	89.233	O.2	1	RES1	0.000	
4	  S1	21.953	-70.452	89.544	S.O2	1	RES1	0.000	
5	  C2	22.910	-69.811	87.011	C.3	1	RES1	0.000	
6	  N2	17.533	-73.952	89.423	N.2	1	RES1	0.000	
7	  O2	22.985	-69.803	90.334	O.2	1	RES1	0.000	
8	  C3	21.785	-69.526	88.010	C.3	1	RES1	0.000	
9	  N3	16.275	-79.547	87.634	N.2	1	RES1	0.000	
10	  C4	19.257	-70.663	89.722	C.2	1	RES1	0.000	
11	  N4	17.354	-78.395	85.837	N.2	1	RES1	0.000	
12	  C5	18.424	-69.860	88.969	C.2	1	RES1	0.000	
13	  N5	16.835	-76.914	91.162	N.2	1	RES1	0.000	
14	  C6	17.284	-70.395	88.358	C.2	1	RES1	0.000	
15	  N6	16.540	-77.600	93.439	N.pl3	1	RES1	0.000	
16	  C7	16.992	-71.737	88.506	C.2	1	RES1	0.000	
17	  N7	15.970	-81.829	93.198	N.3	1	RES1	0.000	
18	  C8	17.826	-72.560	89.268	C.2	1	RES1	0.000	
19	  C9	17.476	-74.830	88.329	C.2	1	RES1	0.000	
20	 C10	17.200	-76.091	88.826	C.2	1	RES1	0.000	
21	 C11	17.060	-77.280	87.963	C.2	1	RES1	0.000	
22	 C12	16.429	-78.427	88.384	C.2	1	RES1	0.000	
23	 C13	16.762	-79.484	86.378	C.2	1	RES1	0.000	
24	 C14	17.496	-77.300	86.638	C.2	1	RES1	0.000	
25	 C15	17.097	-75.956	90.246	C.2	1	RES1	0.000	
26	 C16	16.821	-76.568	92.472	C.2	1	RES1	0.000	
27	 C17	16.875	-77.369	94.889	C.3	1	RES1	0.000	
28	 C18	16.091	-78.919	92.968	C.3	1	RES1	0.000	
29	 C19	15.191	-79.624	93.977	C.3	1	RES1	0.000	
30	 C20	14.781	-80.990	93.473	C.3	1	RES1	0.000	
31	 C21	15.612	-83.200	92.741	C.3	1	RES1	0.000	
32	 C22	15.106	-84.078	93.858	C.3	1	RES1	0.000	
33	 C56	16.837	-81.197	92.161	C.3	1	RES1	0.000	
34	 C57	17.302	-79.795	92.624	C.3	1	RES1	0.000	
35	 C58	17.021	-75.239	92.872	C.2	1	RES1	0.000	
36	 C59	17.305	-74.245	91.911	C.2	1	RES1	0.000	
37	 C60	17.331	-74.632	90.574	C.2	1	RES1	0.000	
38	 C61	18.957	-72.035	89.866	C.2	1	RES1	0.000	
39	  F1	15.891	-72.229	87.913	 F	1	RES1	0.000	
40	  F2	19.738	-72.797	90.654	 F	1	RES1	0.000	
@<TRIPOS>BOND
1 1 5 1
2 2 4 1
3 2 10 1
4 3 4 2
5 4 7 2
6 4 8 1
7 5 8 1
8 6 18 1
9 6 19 ar
10 6 37 ar
11 10 12 ar
12 10 38 ar
13 12 14 ar
14 14 16 ar
15 16 18 ar
16 19 20 ar
17 20 21 1
18 20 25 ar
19 21 22 ar
20 21 24 ar
21 9 22 ar
22 9 23 ar
23 11 23 ar
24 11 24 ar
25 13 25 ar
26 25 37 ar
27 13 26 ar
28 15 26 1
29 26 35 ar
30 15 27 1
31 15 28 1
32 28 29 1
33 28 34 1
34 29 30 1
35 17 30 1
36 17 31 1
37 31 32 1
38 17 33 1
39 33 34 1
40 35 36 ar
41 36 37 ar
42 18 38 ar
43 16 39 1
44 38 40 1
@<TRIPOS>SUBSTRUCTURE
1	RES1	1	GROUP	1 ****	RES
