# created with PyMOL 2.5.2
@<TRIPOS>MOLECULE
BRAF_5CSX_TargetProtein
40 44 1                 
SMALL
USER_CHARGES
@<TRIPOS>ATOM
1	  C1	22.521	-69.478	85.562	C.3	1	RES1	0.000	
2	  N1	20.293	-70.081	90.202	N.pl3	1	RES1	0.000	
3	  O1	21.822	-71.872	89.220	O.2	1	RES1	0.000	
4	  S1	21.810	-70.430	89.497	S.O2	1	RES1	0.000	
5	  C2	22.802	-69.932	86.985	C.3	1	RES1	0.000	
6	  N2	17.581	-74.127	89.522	N.2	1	RES1	0.000	
7	  O2	22.867	-69.789	90.238	O.2	1	RES1	0.000	
8	  C3	21.615	-69.612	87.897	C.3	1	RES1	0.000	
9	  N3	16.153	-79.830	88.278	N.2	1	RES1	0.000	
10	  C4	19.137	-70.762	89.673	C.2	1	RES1	0.000	
11	  N4	17.208	-78.857	86.383	N.2	1	RES1	0.000	
12	  C5	18.261	-70.055	88.828	C.2	1	RES1	0.000	
13	  N5	16.938	-76.945	91.547	N.2	1	RES1	0.000	
14	  C6	17.176	-70.668	88.255	C.2	1	RES1	0.000	
15	  N6	16.782	-77.415	93.887	N.pl3	1	RES1	0.000	
16	  C7	16.950	-72.042	88.470	C.2	1	RES1	0.000	
17	  N7	16.154	-81.226	91.966	N.3	1	RES1	0.000	
18	  C8	17.841	-72.762	89.291	C.2	1	RES1	0.000	
19	  C9	17.434	-75.090	88.539	C.2	1	RES1	0.000	
20	 C10	17.168	-76.307	89.138	C.2	1	RES1	0.000	
21	 C11	16.966	-77.549	88.397	C.2	1	RES1	0.000	
22	 C12	16.349	-78.662	88.950	C.2	1	RES1	0.000	
23	 C13	16.591	-79.863	87.036	C.2	1	RES1	0.000	
24	 C14	17.376	-77.722	87.082	C.2	1	RES1	0.000	
25	 C15	17.157	-76.062	90.557	C.2	1	RES1	0.000	
26	 C16	16.991	-76.477	92.826	C.2	1	RES1	0.000	
27	 C17	17.210	-76.988	95.238	C.3	1	RES1	0.000	
28	 C18	16.337	-78.810	93.645	C.3	1	RES1	0.000	
29	 C19	17.542	-79.744	93.376	C.3	1	RES1	0.000	
30	 C20	17.132	-81.145	93.098	C.3	1	RES1	0.000	
31	 C21	15.771	-82.609	91.669	C.3	1	RES1	0.000	
32	 C22	14.454	-82.732	90.912	C.3	1	RES1	0.000	
33	 C48	14.960	-80.393	92.263	C.3	1	RES1	0.000	
34	 C49	15.360	-78.946	92.497	C.3	1	RES1	0.000	
35	 C50	17.276	-75.134	93.090	C.2	1	RES1	0.000	
36	 C51	17.487	-74.230	92.061	C.2	1	RES1	0.000	
37	 C52	17.408	-74.714	90.759	C.2	1	RES1	0.000	
38	 C53	18.920	-72.126	89.905	C.2	1	RES1	0.000	
39	  F1	15.887	-72.604	87.889	 F	1	RES1	0.000	
40	  F2	19.743	-72.793	90.696	 F	1	RES1	0.000	
@<TRIPOS>BOND
1 1 5 1
2 2 4 1
3 2 10 1
4 3 4 2
5 4 7 2
6 4 8 1
7 5 8 1
8 6 18 1
9 6 19 ar
10 6 37 ar
11 10 12 ar
12 10 38 ar
13 12 14 ar
14 14 16 ar
15 16 18 ar
16 19 20 ar
17 20 21 1
18 20 25 ar
19 21 22 ar
20 21 24 ar
21 9 22 ar
22 9 23 ar
23 11 23 ar
24 11 24 ar
25 13 25 ar
26 25 37 ar
27 13 26 ar
28 15 26 1
29 26 35 ar
30 15 27 1
31 15 28 1
32 28 29 1
33 28 34 1
34 29 30 1
35 17 30 1
36 17 31 1
37 31 32 1
38 17 33 1
39 33 34 1
40 35 36 ar
41 36 37 ar
42 18 38 ar
43 16 39 1
44 38 40 1
@<TRIPOS>SUBSTRUCTURE
1	RES1	1	GROUP	1 ****	RES
