# created with PyMOL 2.5.2
@<TRIPOS>MOLECULE
BRAF_5CSX_TargetProtein
41 45 1                 
SMALL
USER_CHARGES
@<TRIPOS>ATOM
1	  C1	22.660	-69.262	85.656	C.3	1	RES1	0.000	
2	  N1	20.308	-70.185	90.174	N.pl3	1	RES1	0.000	
3	  O1	22.041	-71.853	89.193	O.2	1	RES1	0.000	
4	  S1	21.879	-70.461	89.521	S.O2	1	RES1	0.000	
5	  C2	22.942	-69.774	87.048	C.3	1	RES1	0.000	
6	  N2	17.516	-74.132	89.519	N.2	1	RES1	0.000	
7	  O2	22.817	-69.742	90.337	O.2	1	RES1	0.000	
8	  C3	21.720	-69.549	87.978	C.3	1	RES1	0.000	
9	  N3	17.129	-78.851	86.330	N.2	1	RES1	0.000	
10	  O3	13.548	-83.440	91.403	O.2	1	RES1	0.000	
11	  C4	19.163	-70.818	89.551	C.2	1	RES1	0.000	
12	  N4	16.165	-79.843	88.282	N.2	1	RES1	0.000	
13	  C5	18.268	-70.053	88.773	C.2	1	RES1	0.000	
14	  N5	16.941	-76.954	91.545	N.2	1	RES1	0.000	
15	  C6	17.149	-70.664	88.221	C.2	1	RES1	0.000	
16	  N6	16.792	-77.422	93.866	N.pl3	1	RES1	0.000	
17	  C7	16.896	-72.010	88.454	C.2	1	RES1	0.000	
18	  N7	16.170	-81.274	92.048	N.3	1	RES1	0.000	
19	  C8	17.772	-72.764	89.259	C.2	1	RES1	0.000	
20	  C9	17.338	-75.068	88.527	C.2	1	RES1	0.000	
21	 C10	17.143	-76.305	89.128	C.2	1	RES1	0.000	
22	 C11	16.941	-77.543	88.374	C.2	1	RES1	0.000	
23	 C12	17.320	-77.717	87.036	C.2	1	RES1	0.000	
24	 C13	16.576	-79.841	87.008	C.2	1	RES1	0.000	
25	 C14	16.347	-78.694	88.937	C.2	1	RES1	0.000	
26	 C15	17.134	-76.059	90.520	C.2	1	RES1	0.000	
27	 C16	16.972	-76.483	92.799	C.2	1	RES1	0.000	
28	 C17	17.221	-76.978	95.214	C.3	1	RES1	0.000	
29	 C18	16.365	-78.845	93.658	C.3	1	RES1	0.000	
30	 C19	17.582	-79.735	93.386	C.3	1	RES1	0.000	
31	 C20	17.160	-81.177	93.129	C.3	1	RES1	0.000	
32	 C21	15.809	-82.657	91.748	C.3	1	RES1	0.000	
33	 C22	14.494	-82.737	91.045	C.2	1	RES1	0.000	
34	 C46	14.976	-80.461	92.348	C.3	1	RES1	0.000	
35	 C47	15.306	-78.991	92.548	C.3	1	RES1	0.000	
36	 C48	17.186	-75.149	93.060	C.2	1	RES1	0.000	
37	 C49	17.379	-74.219	92.037	C.2	1	RES1	0.000	
38	 C50	17.359	-74.715	90.735	C.2	1	RES1	0.000	
39	 C51	18.914	-72.153	89.798	C.2	1	RES1	0.000	
40	  F1	15.784	-72.572	87.944	 F	1	RES1	0.000	
41	  F2	19.787	-72.851	90.550	 F	1	RES1	0.000	
@<TRIPOS>BOND
1 1 5 1
2 2 11 1
3 2 4 1
4 3 4 2
5 4 7 2
6 4 8 1
7 5 8 1
8 6 19 1
9 6 20 ar
10 6 38 ar
11 11 13 ar
12 11 39 ar
13 13 15 ar
14 15 17 ar
15 17 19 ar
16 20 21 ar
17 21 22 1
18 21 26 ar
19 22 23 ar
20 22 25 ar
21 9 23 ar
22 9 24 ar
23 12 24 ar
24 12 25 ar
25 14 26 ar
26 26 38 ar
27 14 27 ar
28 16 27 1
29 27 36 ar
30 16 28 1
31 16 29 1
32 29 30 1
33 29 35 1
34 30 31 1
35 18 31 1
36 18 32 1
37 32 33 1
38 10 33 2
39 18 34 1
40 34 35 1
41 36 37 ar
42 37 38 ar
43 19 39 ar
44 17 40 1
45 39 41 1
@<TRIPOS>SUBSTRUCTURE
1	RES1	1	GROUP	1 ****	RES
