# created with PyMOL 2.5.2
@<TRIPOS>MOLECULE
BRAF_5CSX_TargetProtein
41 45 1                 
SMALL
USER_CHARGES
@<TRIPOS>ATOM
1	  C1	22.674	-69.197	85.712	C.3	1	RES1	0.000	
2	  N1	20.478	-70.173	90.346	N.pl3	1	RES1	0.000	
3	  O1	22.030	-71.875	89.232	O.2	1	RES1	0.000	
4	  S1	22.003	-70.473	89.597	S.O2	1	RES1	0.000	
5	  C2	23.007	-69.791	87.117	C.3	1	RES1	0.000	
6	  N2	17.531	-73.962	89.402	N.2	1	RES1	0.000	
7	  O2	23.065	-69.900	90.401	O.2	1	RES1	0.000	
8	  C3	21.845	-69.531	88.083	C.3	1	RES1	0.000	
9	  N3	17.350	-78.326	85.732	N.2	1	RES1	0.000	
10	  O3	15.562	-84.136	92.668	O.2	1	RES1	0.000	
11	  C4	19.254	-70.680	89.763	C.2	1	RES1	0.000	
12	  N4	16.272	-79.512	87.508	N.2	1	RES1	0.000	
13	  C5	18.396	-69.847	89.058	C.2	1	RES1	0.000	
14	  N5	16.783	-76.968	91.086	N.2	1	RES1	0.000	
15	  C6	17.237	-70.385	88.446	C.2	1	RES1	0.000	
16	  N6	16.508	-77.679	93.362	N.pl3	1	RES1	0.000	
17	  C7	16.949	-71.749	88.573	C.2	1	RES1	0.000	
18	  N7	15.687	-81.846	92.877	N.pl3	1	RES1	0.000	
19	  C8	17.821	-72.571	89.299	C.2	1	RES1	0.000	
20	  C9	17.474	-74.824	88.320	C.2	1	RES1	0.000	
21	 C10	17.165	-76.073	88.757	C.2	1	RES1	0.000	
22	 C11	17.015	-77.257	87.899	C.2	1	RES1	0.000	
23	 C12	17.479	-77.280	86.546	C.2	1	RES1	0.000	
24	 C13	16.758	-79.420	86.282	C.2	1	RES1	0.000	
25	 C14	16.418	-78.439	88.315	C.2	1	RES1	0.000	
26	 C15	17.072	-75.989	90.179	C.2	1	RES1	0.000	
27	 C16	16.777	-76.652	92.411	C.2	1	RES1	0.000	
28	 C17	16.896	-77.501	94.767	C.3	1	RES1	0.000	
29	 C18	15.970	-78.969	92.839	C.3	1	RES1	0.000	
30	 C19	15.053	-79.667	93.845	C.3	1	RES1	0.000	
31	 C20	14.557	-80.999	93.279	C.3	1	RES1	0.000	
32	 C21	15.765	-83.167	93.370	C.2	1	RES1	0.000	
33	 C22	16.115	-83.324	94.804	C.3	1	RES1	0.000	
34	 C46	16.613	-81.220	91.937	C.3	1	RES1	0.000	
35	 C47	17.133	-79.902	92.448	C.3	1	RES1	0.000	
36	 C48	17.006	-75.330	92.812	C.2	1	RES1	0.000	
37	 C49	17.298	-74.308	91.910	C.2	1	RES1	0.000	
38	 C50	17.318	-74.662	90.562	C.2	1	RES1	0.000	
39	 C51	18.971	-72.045	89.867	C.2	1	RES1	0.000	
40	  F1	15.844	-72.231	88.015	 F	1	RES1	0.000	
41	  F2	19.836	-72.832	90.533	 F	1	RES1	0.000	
@<TRIPOS>BOND
1 1 5 1
2 2 4 1
3 2 11 1
4 3 4 2
5 4 7 2
6 4 8 1
7 5 8 1
8 6 19 1
9 6 20 ar
10 6 38 ar
11 11 13 ar
12 11 39 ar
13 13 15 ar
14 15 17 ar
15 17 19 ar
16 20 21 ar
17 21 22 1
18 21 26 ar
19 22 23 ar
20 22 25 ar
21 9 23 ar
22 9 24 ar
23 12 24 ar
24 12 25 ar
25 14 26 ar
26 26 38 ar
27 14 27 ar
28 16 27 1
29 27 36 ar
30 16 28 1
31 16 29 1
32 29 30 1
33 29 35 1
34 30 31 1
35 18 31 1
36 10 32 2
37 18 32 1
38 32 33 1
39 18 34 1
40 34 35 1
41 36 37 ar
42 37 38 ar
43 19 39 ar
44 17 40 1
45 39 41 1
@<TRIPOS>SUBSTRUCTURE
1	RES1	1	GROUP	1 ****	RES
