# created with PyMOL 2.5.2
@<TRIPOS>MOLECULE
BTK_5P9J_TargetProtein
34 38 1                 
SMALL
USER_CHARGES
@<TRIPOS>ATOM
1	  N6	24.657	13.202	-0.592	N.3	1	RES1	0.000	
2	  O6	22.879	9.734	-1.803	O.2	1	RES1	0.000	
3	  N7	23.541	9.195	0.347	N.pl3	1	RES1	0.000	
4	  O7	17.503	5.811	8.518	O.3	1	RES1	0.000	
5	  N8	21.193	6.669	1.854	N.2	1	RES1	0.000	
6	  N9	20.984	6.715	3.189	N.2	1	RES1	0.000	
7	 N10	17.042	4.596	2.474	N.pl3	1	RES1	0.000	
8	 N11	17.930	4.857	0.332	N.2	1	RES1	0.000	
9	 N12	20.092	5.889	-0.150	N.2	1	RES1	0.000	
10	 C24	24.978	10.622	-1.071	C.3	1	RES1	0.000	
11	 C25	24.772	12.070	-0.803	C.3	1	RES1	0.000	
12	 C26	23.717	9.837	-0.903	C.2	1	RES1	0.000	
13	 C27	24.681	9.095	1.266	C.3	1	RES1	0.000	
14	 C28	24.900	7.630	1.700	C.3	1	RES1	0.000	
15	 C29	23.612	7.044	2.296	C.3	1	RES1	0.000	
16	 C30	22.422	7.209	1.292	C.3	1	RES1	0.000	
17	 C31	19.754	6.178	3.351	C.2	1	RES1	0.000	
18	 C32	19.164	6.104	4.681	C.2	1	RES1	0.000	
19	 C33	18.796	4.868	5.230	C.2	1	RES1	0.000	
20	 C34	18.242	4.779	6.514	C.2	1	RES1	0.000	
21	 C35	18.023	5.954	7.240	C.2	1	RES1	0.000	
22	 C36	16.534	6.770	8.913	C.2	1	RES1	0.000	
23	 C37	15.488	7.195	8.084	C.2	1	RES1	0.000	
24	 C38	14.566	8.126	8.522	C.2	1	RES1	0.000	
25	 C39	14.651	8.582	9.871	C.2	1	RES1	0.000	
26	 C40	15.668	8.145	10.690	C.2	1	RES1	0.000	
27	 C41	16.614	7.223	10.225	C.2	1	RES1	0.000	
28	 C42	18.418	7.183	6.726	C.2	1	RES1	0.000	
29	 C43	18.974	7.256	5.458	C.2	1	RES1	0.000	
30	 C44	19.223	5.734	2.132	C.2	1	RES1	0.000	
31	 C45	18.052	5.074	1.640	C.2	1	RES1	0.000	
32	 C46	18.932	5.266	-0.485	C.2	1	RES1	0.000	
33	 C47	20.162	6.079	1.167	C.2	1	RES1	0.000	
34	 C48	22.277	8.665	0.859	C.3	1	RES1	0.000	
@<TRIPOS>BOND
1 5 6 ar
2 7 31 1
3 8 31 ar
4 8 32 ar
5 9 32 ar
6 9 33 ar
7 10 11 1
8 10 12 1
9 1 11 1
10 2 12 2
11 3 12 1
12 3 13 1
13 13 14 1
14 14 15 1
15 15 16 1
16 5 16 1
17 16 34 1
18 6 17 ar
19 17 18 1
20 17 30 ar
21 18 19 ar
22 18 29 ar
23 19 20 ar
24 20 21 ar
25 4 21 1
26 21 28 ar
27 4 22 1
28 22 23 ar
29 22 27 ar
30 23 24 ar
31 24 25 ar
32 25 26 ar
33 26 27 ar
34 28 29 ar
35 30 31 ar
36 30 33 ar
37 5 33 ar
38 3 34 1
@<TRIPOS>SUBSTRUCTURE
1	RES1	1	GROUP	1 ****	RES
