# created with PyMOL 2.5.2
@<TRIPOS>MOLECULE
BTK_5P9J_TargetProtein
34 38 1                 
SMALL
USER_CHARGES
@<TRIPOS>ATOM
1	  N6	24.697	13.185	-0.596	N.3	1	RES1	0.000	
2	  O6	22.899	9.724	-1.790	O.2	1	RES1	0.000	
3	  N7	23.535	9.195	0.350	N.pl3	1	RES1	0.000	
4	  O7	17.515	5.743	8.563	O.3	1	RES1	0.000	
5	  N8	21.157	6.704	1.892	N.2	1	RES1	0.000	
6	  N9	20.905	6.784	3.228	N.2	1	RES1	0.000	
7	 N10	16.944	4.774	2.445	N.pl3	1	RES1	0.000	
8	 N11	17.931	4.855	0.331	N.2	1	RES1	0.000	
9	 N12	20.117	5.867	-0.122	N.2	1	RES1	0.000	
10	 C25	24.967	10.632	-1.100	C.3	1	RES1	0.000	
11	 C26	24.793	12.051	-0.816	C.3	1	RES1	0.000	
12	 C27	23.707	9.817	-0.894	C.2	1	RES1	0.000	
13	 C28	24.682	9.120	1.269	C.3	1	RES1	0.000	
14	 C29	24.853	7.669	1.759	C.3	1	RES1	0.000	
15	 C30	23.587	7.115	2.341	C.3	1	RES1	0.000	
16	 C31	22.423	7.230	1.341	C.3	1	RES1	0.000	
17	 C32	19.729	6.201	3.385	C.2	1	RES1	0.000	
18	 C33	19.143	6.061	4.726	C.2	1	RES1	0.000	
19	 C34	18.810	4.786	5.257	C.2	1	RES1	0.000	
20	 C35	18.270	4.688	6.498	C.2	1	RES1	0.000	
21	 C36	18.025	5.810	7.270	C.2	1	RES1	0.000	
22	 C37	16.549	6.702	8.909	C.2	1	RES1	0.000	
23	 C38	15.516	7.067	8.033	C.2	1	RES1	0.000	
24	 C39	14.609	8.039	8.445	C.2	1	RES1	0.000	
25	 C40	14.749	8.675	9.672	C.2	1	RES1	0.000	
26	 C41	15.798	8.333	10.520	C.2	1	RES1	0.000	
27	 C42	16.722	7.373	10.136	C.2	1	RES1	0.000	
28	 C43	18.386	7.065	6.792	C.2	1	RES1	0.000	
29	 C44	18.932	7.164	5.516	C.2	1	RES1	0.000	
30	 C45	19.173	5.748	2.155	C.2	1	RES1	0.000	
31	 C46	18.014	5.143	1.629	C.2	1	RES1	0.000	
32	 C47	18.957	5.252	-0.464	C.2	1	RES1	0.000	
33	 C48	20.158	6.098	1.212	C.2	1	RES1	0.000	
34	 C49	22.230	8.671	0.867	C.3	1	RES1	0.000	
@<TRIPOS>BOND
1 5 6 ar
2 7 31 1
3 8 31 ar
4 8 32 ar
5 9 32 ar
6 9 33 ar
7 10 11 1
8 10 12 1
9 1 11 1
10 2 12 2
11 3 12 1
12 3 13 1
13 13 14 1
14 14 15 1
15 15 16 1
16 5 16 1
17 16 34 1
18 6 17 ar
19 17 18 1
20 17 30 ar
21 18 19 ar
22 18 29 ar
23 19 20 ar
24 20 21 ar
25 4 21 1
26 21 28 ar
27 4 22 1
28 22 23 ar
29 22 27 ar
30 23 24 ar
31 24 25 ar
32 25 26 ar
33 26 27 ar
34 28 29 ar
35 30 31 ar
36 30 33 ar
37 5 33 ar
38 3 34 1
@<TRIPOS>SUBSTRUCTURE
1	RES1	1	GROUP	1 ****	RES
