# created with PyMOL 2.5.2
@<TRIPOS>MOLECULE
BTK_5P9J_TargetProtein
34 38 1                 
SMALL
USER_CHARGES
@<TRIPOS>ATOM
1	  N6	24.580	13.261	-0.609	N.3	1	RES1	0.000	
2	  N7	23.514	9.222	0.394	N.3	1	RES1	0.000	
3	  O7	22.807	9.807	-1.722	O.3	1	RES1	0.000	
4	  N8	21.178	6.658	1.889	N.2	1	RES1	0.000	
5	  O8	17.494	5.776	8.556	O.3	1	RES1	0.000	
6	  N9	20.979	6.689	3.235	N.2	1	RES1	0.000	
7	 N10	17.032	4.593	2.499	N.pl3	1	RES1	0.000	
8	 N11	17.896	4.872	0.343	N.2	1	RES1	0.000	
9	 N12	20.048	5.903	-0.126	N.2	1	RES1	0.000	
10	 C25	24.931	10.676	-1.059	C.3	1	RES1	0.000	
11	 C26	24.704	12.094	-0.787	C.3	1	RES1	0.000	
12	 C27	23.658	9.869	-0.839	C.3	1	RES1	0.000	
13	 C28	24.664	9.109	1.302	C.3	1	RES1	0.000	
14	 C29	24.883	7.642	1.730	C.3	1	RES1	0.000	
15	 C30	23.572	7.054	2.289	C.3	1	RES1	0.000	
16	 C31	22.409	7.214	1.315	C.3	1	RES1	0.000	
17	 C32	19.762	6.129	3.399	C.2	1	RES1	0.000	
18	 C33	19.180	6.036	4.707	C.2	1	RES1	0.000	
19	 C34	19.083	7.162	5.529	C.2	1	RES1	0.000	
20	 C35	18.531	7.064	6.809	C.2	1	RES1	0.000	
21	 C36	18.075	5.812	7.265	C.2	1	RES1	0.000	
22	 C37	16.581	6.775	8.870	C.2	1	RES1	0.000	
23	 C38	15.563	7.205	7.960	C.2	1	RES1	0.000	
24	 C39	14.677	8.175	8.361	C.2	1	RES1	0.000	
25	 C40	14.752	8.738	9.637	C.2	1	RES1	0.000	
26	 C41	15.716	8.294	10.541	C.2	1	RES1	0.000	
27	 C42	16.633	7.291	10.141	C.2	1	RES1	0.000	
28	 C43	18.168	4.684	6.466	C.2	1	RES1	0.000	
29	 C44	18.727	4.794	5.192	C.2	1	RES1	0.000	
30	 C45	19.216	5.724	2.147	C.2	1	RES1	0.000	
31	 C46	18.056	5.051	1.679	C.2	1	RES1	0.000	
32	 C47	18.916	5.320	-0.480	C.2	1	RES1	0.000	
33	 C48	20.131	6.061	1.207	C.2	1	RES1	0.000	
34	 C49	22.249	8.661	0.900	C.3	1	RES1	0.000	
@<TRIPOS>BOND
1 4 6 ar
2 7 31 1
3 8 31 ar
4 8 32 ar
5 9 32 ar
6 9 33 ar
7 10 11 1
8 10 12 1
9 1 11 1
10 2 12 1
11 3 12 1
12 2 13 1
13 13 14 1
14 14 15 1
15 15 16 1
16 4 16 1
17 16 34 1
18 6 17 ar
19 17 18 1
20 17 30 ar
21 18 19 ar
22 18 29 ar
23 19 20 ar
24 20 21 ar
25 5 21 1
26 21 28 ar
27 5 22 1
28 22 23 ar
29 22 27 ar
30 23 24 ar
31 24 25 ar
32 25 26 ar
33 26 27 ar
34 28 29 ar
35 30 31 ar
36 30 33 ar
37 4 33 ar
38 2 34 1
@<TRIPOS>SUBSTRUCTURE
1	RES1	1	GROUP	1 ****	RES
