# created with PyMOL 2.5.2
@<TRIPOS>MOLECULE
BTK_5P9J_TargetProtein
34 38 1                 
SMALL
USER_CHARGES
@<TRIPOS>ATOM
1	  N6	24.617	13.161	-0.452	N.3	1	RES1	0.000	
2	  N7	23.544	9.230	0.444	N.3	1	RES1	0.000	
3	  N8	21.224	6.655	1.909	N.2	1	RES1	0.000	
4	  O8	22.672	9.725	-1.636	O.3	1	RES1	0.000	
5	  N9	20.966	6.735	3.226	N.2	1	RES1	0.000	
6	  O9	17.503	5.748	8.550	O.3	1	RES1	0.000	
7	 N10	16.963	4.799	2.435	N.pl3	1	RES1	0.000	
8	 N11	17.960	4.858	0.311	N.2	1	RES1	0.000	
9	 N12	20.136	5.843	-0.127	N.2	1	RES1	0.000	
10	 C27	24.802	10.658	-1.159	C.3	1	RES1	0.000	
11	 C28	24.658	12.050	-0.771	C.3	1	RES1	0.000	
12	 C29	23.545	9.842	-0.816	C.3	1	RES1	0.000	
13	 C30	24.684	9.107	1.367	C.3	1	RES1	0.000	
14	 C31	24.888	7.660	1.784	C.3	1	RES1	0.000	
15	 C32	23.629	7.042	2.346	C.3	1	RES1	0.000	
16	 C33	22.445	7.211	1.345	C.3	1	RES1	0.000	
17	 C34	19.778	6.155	3.404	C.2	1	RES1	0.000	
18	 C35	19.183	6.046	4.707	C.2	1	RES1	0.000	
19	 C36	19.060	7.143	5.561	C.2	1	RES1	0.000	
20	 C37	18.521	7.039	6.835	C.2	1	RES1	0.000	
21	 C38	18.077	5.772	7.252	C.2	1	RES1	0.000	
22	 C39	16.590	6.762	8.853	C.2	1	RES1	0.000	
23	 C40	15.709	7.316	7.905	C.2	1	RES1	0.000	
24	 C41	14.825	8.310	8.250	C.2	1	RES1	0.000	
25	 C42	14.767	8.746	9.581	C.2	1	RES1	0.000	
26	 C43	15.585	8.208	10.539	C.2	1	RES1	0.000	
27	 C44	16.493	7.196	10.180	C.2	1	RES1	0.000	
28	 C45	18.165	4.667	6.444	C.2	1	RES1	0.000	
29	 C46	18.696	4.783	5.178	C.2	1	RES1	0.000	
30	 C47	19.220	5.752	2.123	C.2	1	RES1	0.000	
31	 C48	18.038	5.113	1.649	C.2	1	RES1	0.000	
32	 C49	19.001	5.233	-0.472	C.2	1	RES1	0.000	
33	 C50	20.171	6.053	1.208	C.2	1	RES1	0.000	
34	 C51	22.288	8.697	0.947	C.3	1	RES1	0.000	
@<TRIPOS>BOND
1 3 5 ar
2 7 31 1
3 8 31 ar
4 8 32 ar
5 9 32 ar
6 9 33 ar
7 10 11 1
8 10 12 1
9 1 11 1
10 2 12 1
11 4 12 1
12 2 13 1
13 13 14 1
14 14 15 1
15 15 16 1
16 3 16 1
17 16 34 1
18 5 17 ar
19 17 18 1
20 17 30 ar
21 18 19 ar
22 18 29 ar
23 19 20 ar
24 20 21 ar
25 6 21 1
26 21 28 ar
27 6 22 1
28 22 23 ar
29 22 27 ar
30 23 24 ar
31 24 25 ar
32 25 26 ar
33 26 27 ar
34 28 29 ar
35 30 31 ar
36 30 33 ar
37 3 33 ar
38 2 34 1
@<TRIPOS>SUBSTRUCTURE
1	RES1	1	GROUP	1 ****	RES
