# created with PyMOL 2.5.2
@<TRIPOS>MOLECULE
BRD4_6DL2_TargetProtein
22 25 1                 
SMALL
USER_CHARGES
@<TRIPOS>ATOM
1	  C1	11.827	4.601	-2.668	C.3	1	RES1	0.000	
2	  N1	13.564	3.924	-1.091	N.2	1	RES1	0.000	
3	  O1	12.324	6.213	2.425	O.3	1	RES1	0.000	
4	  S1	9.303	5.363	-0.989	S.2	1	RES1	0.000	
5	  C2	12.382	4.443	-1.299	C.2	1	RES1	0.000	
6	  N2	13.845	4.029	0.230	N.2	1	RES1	0.000	
7	  C3	12.810	4.609	0.805	C.2	1	RES1	0.000	
8	  C4	12.744	4.867	2.266	C.3	1	RES1	0.000	
9	  C5	10.904	6.336	2.607	C.3	1	RES1	0.000	
10	  C6	10.078	6.043	1.377	C.2	1	RES1	0.000	
11	  C7	10.531	5.428	0.219	C.2	1	RES1	0.000	
12	  C8	8.154	6.117	0.029	C.2	1	RES1	0.000	
13	  N8	11.815	4.858	-0.099	N.2	1	RES1	0.000	
14	  C9	6.779	6.404	-0.493	C.3	1	RES1	0.000	
15	 C31	8.694	6.416	1.284	C.2	1	RES1	0.000	
16	 C32	7.889	7.084	2.376	C.3	1	RES1	0.000	
17	 C33	7.614	6.068	3.445	C.2	1	RES1	0.000	
18	 C34	6.977	4.841	3.176	C.2	1	RES1	0.000	
19	 C35	6.716	3.908	4.225	C.2	1	RES1	0.000	
20	 C36	7.079	4.226	5.526	C.2	1	RES1	0.000	
21	 C37	7.680	5.446	5.817	C.2	1	RES1	0.000	
22	 C38	7.965	6.346	4.769	C.2	1	RES1	0.000	
@<TRIPOS>BOND
1 1 5 1
2 2 5 ar
3 2 6 ar
4 3 8 1
5 3 9 1
6 4 11 ar
7 4 12 ar
8 5 13 ar
9 6 7 ar
10 7 8 1
11 7 13 ar
12 9 10 1
13 10 11 ar
14 11 13 1
15 12 14 1
16 10 15 ar
17 12 15 ar
18 15 16 1
19 16 17 1
20 17 18 ar
21 17 22 ar
22 18 19 ar
23 19 20 ar
24 20 21 ar
25 21 22 ar
@<TRIPOS>SUBSTRUCTURE
1	RES1	1	GROUP	1 ****	RES
