# created with PyMOL 2.5.2
@<TRIPOS>MOLECULE
BTK_5P9J_TargetProtein
34 38 1                 
SMALL
USER_CHARGES
@<TRIPOS>ATOM
1	  N6	24.585	13.170	-0.541	N.2	1	RES1	0.000	
2	  N7	23.521	9.191	0.341	N.pl3	1	RES1	0.000	
3	  N8	21.141	6.710	1.902	N.2	1	RES1	0.000	
4	  N9	20.899	6.783	3.245	N.2	1	RES1	0.000	
5	  O9	22.894	9.717	-1.814	O.2	1	RES1	0.000	
6	 N10	16.937	4.746	2.404	N.pl3	1	RES1	0.000	
7	 O10	17.476	5.699	8.564	O.3	1	RES1	0.000	
8	 N11	17.952	4.854	0.309	N.2	1	RES1	0.000	
9	 N12	20.123	5.859	-0.099	N.2	1	RES1	0.000	
10	 C29	24.979	10.638	-1.049	C.3	1	RES1	0.000	
11	 C30	24.718	12.065	-0.792	C.2	1	RES1	0.000	
12	 C31	23.715	9.803	-0.903	C.2	1	RES1	0.000	
13	 C32	24.631	9.157	1.297	C.3	1	RES1	0.000	
14	 C33	24.817	7.735	1.826	C.3	1	RES1	0.000	
15	 C34	23.558	7.150	2.386	C.3	1	RES1	0.000	
16	 C35	22.409	7.246	1.379	C.3	1	RES1	0.000	
17	 C36	19.688	6.179	3.400	C.2	1	RES1	0.000	
18	 C37	19.143	6.017	4.729	C.2	1	RES1	0.000	
19	 C38	18.952	7.169	5.544	C.2	1	RES1	0.000	
20	 C39	18.407	7.038	6.799	C.2	1	RES1	0.000	
21	 C40	17.991	5.764	7.260	C.2	1	RES1	0.000	
22	 C41	16.552	6.689	8.898	C.2	1	RES1	0.000	
23	 C42	15.542	7.106	8.035	C.2	1	RES1	0.000	
24	 C43	14.663	8.131	8.429	C.2	1	RES1	0.000	
25	 C44	14.852	8.775	9.636	C.2	1	RES1	0.000	
26	 C45	15.897	8.360	10.497	C.2	1	RES1	0.000	
27	 C46	16.751	7.351	10.117	C.2	1	RES1	0.000	
28	 C47	18.199	4.630	6.477	C.2	1	RES1	0.000	
29	 C48	18.754	4.756	5.201	C.2	1	RES1	0.000	
30	 C49	19.188	5.739	2.143	C.2	1	RES1	0.000	
31	 C50	18.044	5.115	1.617	C.2	1	RES1	0.000	
32	 C51	18.986	5.225	-0.487	C.2	1	RES1	0.000	
33	 C52	20.158	6.091	1.207	C.2	1	RES1	0.000	
34	 C53	22.245	8.666	0.855	C.3	1	RES1	0.000	
@<TRIPOS>BOND
1 3 4 ar
2 6 31 1
3 7 21 1
4 7 22 1
5 8 31 ar
6 8 32 ar
7 9 32 ar
8 9 33 ar
9 10 11 1
10 10 12 1
11 1 11 2
12 2 12 1
13 5 12 2
14 2 13 1
15 13 14 1
16 14 15 1
17 15 16 1
18 3 16 1
19 16 34 1
20 4 17 ar
21 17 18 1
22 17 30 ar
23 18 19 ar
24 18 29 ar
25 19 20 ar
26 20 21 ar
27 21 28 ar
28 22 23 ar
29 22 27 ar
30 23 24 ar
31 24 25 ar
32 25 26 ar
33 26 27 ar
34 28 29 ar
35 30 31 ar
36 30 33 ar
37 3 33 ar
38 2 34 1
@<TRIPOS>SUBSTRUCTURE
1	RES1	1	GROUP	1 ****	RES
