# created with PyMOL 2.5.2
@<TRIPOS>MOLECULE
BTK_5P9J_TargetProtein
34 38 1                 
SMALL
USER_CHARGES
@<TRIPOS>ATOM
1	  N6	24.655	13.207	-0.626	N.3	1	RES1	0.000	
2	  O6	22.891	9.798	-1.797	O.2	1	RES1	0.000	
3	  N7	23.498	9.204	0.361	N.pl3	1	RES1	0.000	
4	  O7	17.546	5.777	8.580	O.3	1	RES1	0.000	
5	  N8	21.168	6.672	1.908	N.2	1	RES1	0.000	
6	  N9	20.935	6.800	3.234	N.2	1	RES1	0.000	
7	 N10	16.956	4.776	2.491	N.pl3	1	RES1	0.000	
8	 N11	17.962	4.852	0.343	N.2	1	RES1	0.000	
9	 N12	20.088	5.831	-0.115	N.2	1	RES1	0.000	
10	 C23	24.973	10.632	-1.052	C.3	1	RES1	0.000	
11	 C24	24.776	12.042	-0.805	C.3	1	RES1	0.000	
12	 C25	23.687	9.850	-0.904	C.2	1	RES1	0.000	
13	 C26	24.632	9.108	1.263	C.3	1	RES1	0.000	
14	 C27	24.864	7.681	1.733	C.3	1	RES1	0.000	
15	 C28	23.577	7.061	2.330	C.3	1	RES1	0.000	
16	 C29	22.425	7.217	1.328	C.3	1	RES1	0.000	
17	 C30	19.733	6.174	3.392	C.2	1	RES1	0.000	
18	 C31	19.179	6.048	4.730	C.2	1	RES1	0.000	
19	 C32	19.040	7.187	5.557	C.2	1	RES1	0.000	
20	 C33	18.490	7.081	6.815	C.2	1	RES1	0.000	
21	 C34	18.098	5.814	7.304	C.2	1	RES1	0.000	
22	 C35	16.582	6.770	8.893	C.2	1	RES1	0.000	
23	 C36	15.669	7.274	7.938	C.2	1	RES1	0.000	
24	 C37	14.739	8.205	8.297	C.2	1	RES1	0.000	
25	 C38	14.667	8.664	9.628	C.2	1	RES1	0.000	
26	 C39	15.556	8.151	10.579	C.2	1	RES1	0.000	
27	 C40	16.507	7.185	10.200	C.2	1	RES1	0.000	
28	 C41	18.213	4.685	6.489	C.2	1	RES1	0.000	
29	 C42	18.753	4.802	5.219	C.2	1	RES1	0.000	
30	 C43	19.200	5.736	2.148	C.2	1	RES1	0.000	
31	 C44	18.028	5.106	1.671	C.2	1	RES1	0.000	
32	 C45	18.958	5.208	-0.458	C.2	1	RES1	0.000	
33	 C46	20.150	6.073	1.193	C.2	1	RES1	0.000	
34	 C47	22.242	8.693	0.864	C.3	1	RES1	0.000	
@<TRIPOS>BOND
1 5 6 ar
2 7 31 1
3 8 31 ar
4 8 32 ar
5 9 32 ar
6 9 33 ar
7 10 11 1
8 10 12 1
9 1 11 1
10 2 12 2
11 3 12 1
12 3 13 1
13 13 14 1
14 14 15 1
15 15 16 1
16 5 16 1
17 16 34 1
18 6 17 ar
19 17 18 1
20 17 30 ar
21 18 19 ar
22 18 29 ar
23 19 20 ar
24 20 21 ar
25 4 21 1
26 21 28 ar
27 4 22 1
28 22 23 ar
29 22 27 ar
30 23 24 ar
31 24 25 ar
32 25 26 ar
33 26 27 ar
34 28 29 ar
35 30 31 ar
36 30 33 ar
37 5 33 ar
38 3 34 1
@<TRIPOS>SUBSTRUCTURE
1	RES1	1	GROUP	1 ****	RES
