# created with PyMOL 2.5.2
@<TRIPOS>MOLECULE
BTK_5P9J_TargetProtein
34 38 1                 
SMALL
USER_CHARGES
@<TRIPOS>ATOM
1	  N5	24.628	13.226	-0.638	N.3	1	RES1	0.000	
2	  O5	22.886	9.742	-1.786	O.2	1	RES1	0.000	
3	  N6	23.531	9.192	0.371	N.pl3	1	RES1	0.000	
4	  O6	17.514	5.832	8.534	O.3	1	RES1	0.000	
5	  N7	21.185	6.670	1.869	N.2	1	RES1	0.000	
6	  N8	20.958	6.725	3.188	N.2	1	RES1	0.000	
7	  N9	17.037	4.609	2.430	N.pl3	1	RES1	0.000	
8	 N10	17.961	4.861	0.285	N.2	1	RES1	0.000	
9	 N11	20.100	5.877	-0.166	N.2	1	RES1	0.000	
10	 C23	24.974	10.638	-1.066	C.3	1	RES1	0.000	
11	 C24	24.754	12.062	-0.801	C.3	1	RES1	0.000	
12	 C25	23.697	9.842	-0.886	C.2	1	RES1	0.000	
13	 C26	24.665	9.086	1.280	C.3	1	RES1	0.000	
14	 C27	24.878	7.655	1.717	C.3	1	RES1	0.000	
15	 C28	23.598	7.057	2.314	C.3	1	RES1	0.000	
16	 C29	22.440	7.203	1.312	C.3	1	RES1	0.000	
17	 C30	19.707	6.160	3.347	C.2	1	RES1	0.000	
18	 C31	19.132	6.062	4.707	C.2	1	RES1	0.000	
19	 C32	19.010	7.245	5.432	C.2	1	RES1	0.000	
20	 C33	18.455	7.189	6.705	C.2	1	RES1	0.000	
21	 C34	18.038	5.985	7.256	C.2	1	RES1	0.000	
22	 C35	16.567	6.772	8.931	C.2	1	RES1	0.000	
23	 C36	15.520	7.197	8.074	C.2	1	RES1	0.000	
24	 C37	14.590	8.113	8.534	C.2	1	RES1	0.000	
25	 C38	14.685	8.592	9.839	C.2	1	RES1	0.000	
26	 C39	15.679	8.170	10.691	C.2	1	RES1	0.000	
27	 C40	16.610	7.237	10.243	C.2	1	RES1	0.000	
28	 C41	18.199	4.805	6.510	C.2	1	RES1	0.000	
29	 C42	18.769	4.833	5.223	C.2	1	RES1	0.000	
30	 C43	19.209	5.694	2.112	C.2	1	RES1	0.000	
31	 C44	18.061	5.070	1.618	C.2	1	RES1	0.000	
32	 C45	18.956	5.257	-0.522	C.2	1	RES1	0.000	
33	 C46	20.159	6.069	1.167	C.2	1	RES1	0.000	
34	 C47	22.259	8.654	0.892	C.3	1	RES1	0.000	
@<TRIPOS>BOND
1 5 6 ar
2 8 31 ar
3 8 32 ar
4 9 32 ar
5 9 33 ar
6 10 11 1
7 10 12 1
8 1 11 1
9 2 12 2
10 3 12 1
11 3 13 1
12 13 14 1
13 14 15 1
14 15 16 1
15 5 16 1
16 16 34 1
17 6 17 ar
18 17 18 1
19 17 30 ar
20 18 19 ar
21 18 29 ar
22 19 20 ar
23 20 21 ar
24 4 21 1
25 21 28 ar
26 4 22 1
27 22 23 ar
28 22 27 ar
29 23 24 ar
30 24 25 ar
31 25 26 ar
32 26 27 ar
33 28 29 ar
34 30 31 ar
35 30 33 ar
36 7 31 1
37 5 33 ar
38 3 34 1
@<TRIPOS>SUBSTRUCTURE
1	RES1	1	GROUP	1 ****	RES
