# created with PyMOL 2.5.2
@<TRIPOS>MOLECULE
BTK_5P9J_TargetProtein
34 38 1                 
SMALL
USER_CHARGES
@<TRIPOS>ATOM
1	  N5	24.635	13.214	-0.612	N.3	1	RES1	0.000	
2	  O5	22.822	9.796	-1.761	O.3	1	RES1	0.000	
3	  N6	23.539	9.185	0.359	N.3	1	RES1	0.000	
4	  O6	17.483	5.815	8.544	O.3	1	RES1	0.000	
5	  N7	21.193	6.658	1.875	N.2	1	RES1	0.000	
6	  N8	20.981	6.689	3.202	N.2	1	RES1	0.000	
7	  N9	17.030	4.606	2.456	N.pl3	1	RES1	0.000	
8	 N10	17.940	4.840	0.306	N.2	1	RES1	0.000	
9	 N11	20.096	5.873	-0.160	N.2	1	RES1	0.000	
10	 C22	24.944	10.655	-1.083	C.3	1	RES1	0.000	
11	 C23	24.776	12.095	-0.802	C.3	1	RES1	0.000	
12	 C24	23.687	9.855	-0.886	C.3	1	RES1	0.000	
13	 C25	24.703	9.064	1.253	C.3	1	RES1	0.000	
14	 C26	24.903	7.609	1.688	C.3	1	RES1	0.000	
15	 C27	23.637	7.022	2.274	C.3	1	RES1	0.000	
16	 C28	22.451	7.187	1.300	C.3	1	RES1	0.000	
17	 C29	19.761	6.146	3.355	C.2	1	RES1	0.000	
18	 C30	19.176	6.072	4.710	C.2	1	RES1	0.000	
19	 C31	18.802	4.845	5.263	C.2	1	RES1	0.000	
20	 C32	18.244	4.787	6.513	C.2	1	RES1	0.000	
21	 C33	18.041	5.951	7.241	C.2	1	RES1	0.000	
22	 C34	16.546	6.771	8.913	C.2	1	RES1	0.000	
23	 C35	15.513	7.196	8.056	C.2	1	RES1	0.000	
24	 C36	14.597	8.116	8.542	C.2	1	RES1	0.000	
25	 C37	14.640	8.622	9.825	C.2	1	RES1	0.000	
26	 C38	15.665	8.166	10.670	C.2	1	RES1	0.000	
27	 C39	16.596	7.235	10.228	C.2	1	RES1	0.000	
28	 C40	18.401	7.202	6.722	C.2	1	RES1	0.000	
29	 C41	18.979	7.266	5.447	C.2	1	RES1	0.000	
30	 C42	19.204	5.731	2.137	C.2	1	RES1	0.000	
31	 C43	18.043	5.066	1.635	C.2	1	RES1	0.000	
32	 C44	18.931	5.276	-0.528	C.2	1	RES1	0.000	
33	 C45	20.171	6.090	1.172	C.2	1	RES1	0.000	
34	 C46	22.288	8.665	0.892	C.3	1	RES1	0.000	
@<TRIPOS>BOND
1 5 6 ar
2 8 31 ar
3 8 32 ar
4 9 32 ar
5 9 33 ar
6 10 11 1
7 10 12 1
8 1 11 1
9 2 12 1
10 3 12 1
11 3 13 1
12 13 14 1
13 14 15 1
14 15 16 1
15 5 16 1
16 16 34 1
17 6 17 ar
18 17 18 1
19 17 30 ar
20 18 19 ar
21 18 29 ar
22 19 20 ar
23 20 21 ar
24 4 21 1
25 21 28 ar
26 4 22 1
27 22 23 ar
28 22 27 ar
29 23 24 ar
30 24 25 ar
31 25 26 ar
32 26 27 ar
33 28 29 ar
34 30 31 ar
35 30 33 ar
36 7 31 1
37 5 33 ar
38 3 34 1
@<TRIPOS>SUBSTRUCTURE
1	RES1	1	GROUP	1 ****	RES
