# created with PyMOL 2.5.2
@<TRIPOS>MOLECULE
BTK_5P9J_TargetProtein
34 38 1                 
SMALL
USER_CHARGES
@<TRIPOS>ATOM
1	  N5	24.600	13.140	-0.462	N.3	1	RES1	0.000	
2	  N6	23.575	9.207	0.388	N.3	1	RES1	0.000	
3	  N7	21.233	6.652	1.877	N.2	1	RES1	0.000	
4	  O7	22.714	9.670	-1.698	O.3	1	RES1	0.000	
5	  N8	20.988	6.691	3.227	N.2	1	RES1	0.000	
6	  O8	17.436	5.796	8.486	O.3	1	RES1	0.000	
7	  N9	17.063	4.631	2.431	N.pl3	1	RES1	0.000	
8	 N10	17.973	4.891	0.279	N.2	1	RES1	0.000	
9	 N11	20.137	5.893	-0.146	N.2	1	RES1	0.000	
10	 C24	24.812	10.638	-1.199	C.3	1	RES1	0.000	
11	 C25	24.672	12.040	-0.780	C.3	1	RES1	0.000	
12	 C26	23.594	9.797	-0.867	C.3	1	RES1	0.000	
13	 C27	24.696	9.103	1.336	C.3	1	RES1	0.000	
14	 C28	24.912	7.664	1.771	C.3	1	RES1	0.000	
15	 C29	23.643	7.025	2.322	C.3	1	RES1	0.000	
16	 C30	22.466	7.212	1.327	C.3	1	RES1	0.000	
17	 C31	19.771	6.156	3.361	C.2	1	RES1	0.000	
18	 C32	19.185	6.079	4.678	C.2	1	RES1	0.000	
19	 C33	19.080	7.228	5.475	C.2	1	RES1	0.000	
20	 C34	18.498	7.152	6.741	C.2	1	RES1	0.000	
21	 C35	18.008	5.938	7.218	C.2	1	RES1	0.000	
22	 C36	16.531	6.741	8.907	C.2	1	RES1	0.000	
23	 C37	15.495	7.236	8.060	C.2	1	RES1	0.000	
24	 C38	14.617	8.178	8.524	C.2	1	RES1	0.000	
25	 C39	14.728	8.646	9.829	C.2	1	RES1	0.000	
26	 C40	15.721	8.188	10.665	C.2	1	RES1	0.000	
27	 C41	16.612	7.230	10.215	C.2	1	RES1	0.000	
28	 C42	18.118	4.785	6.438	C.2	1	RES1	0.000	
29	 C43	18.708	4.854	5.177	C.2	1	RES1	0.000	
30	 C44	19.229	5.725	2.113	C.2	1	RES1	0.000	
31	 C45	18.094	5.068	1.618	C.2	1	RES1	0.000	
32	 C46	18.984	5.308	-0.518	C.2	1	RES1	0.000	
33	 C47	20.186	6.066	1.176	C.2	1	RES1	0.000	
34	 C48	22.305	8.668	0.923	C.3	1	RES1	0.000	
@<TRIPOS>BOND
1 3 5 ar
2 8 31 ar
3 8 32 ar
4 9 32 ar
5 9 33 ar
6 10 11 1
7 10 12 1
8 1 11 1
9 2 12 1
10 4 12 1
11 2 13 1
12 13 14 1
13 14 15 1
14 15 16 1
15 3 16 1
16 16 34 1
17 5 17 ar
18 17 18 1
19 17 30 ar
20 18 19 ar
21 18 29 ar
22 19 20 ar
23 20 21 ar
24 6 21 1
25 21 28 ar
26 6 22 1
27 22 23 ar
28 22 27 ar
29 23 24 ar
30 24 25 ar
31 25 26 ar
32 26 27 ar
33 28 29 ar
34 30 31 ar
35 30 33 ar
36 7 31 1
37 3 33 ar
38 2 34 1
@<TRIPOS>SUBSTRUCTURE
1	RES1	1	GROUP	1 ****	RES
