# created with PyMOL 2.5.2
@<TRIPOS>MOLECULE
BTK_5P9I_TargetProtein
33 37 1                 
SMALL
USER_CHARGES
@<TRIPOS>ATOM
1	  O1	-12.907	9.784	-20.797	O.3	1	RES1	0.000	
2	  N2	-12.043	8.608	-19.022	N.3	1	RES1	0.000	
3	  O2	-17.933	5.897	-10.589	O.3	1	RES1	0.000	
4	  C3	-9.994	10.943	-20.120	C.3	1	RES1	0.000	
5	  N3	-14.585	6.258	-17.479	N.2	1	RES1	0.000	
6	  C4	-10.557	9.839	-20.576	C.3	1	RES1	0.000	
7	  N4	-14.718	6.419	-16.146	N.2	1	RES1	0.000	
8	  C5	-11.911	9.408	-20.153	C.3	1	RES1	0.000	
9	  N5	-18.809	4.516	-16.544	N.pl3	1	RES1	0.000	
10	  C6	-10.843	8.210	-18.276	C.3	1	RES1	0.000	
11	  N6	-18.013	4.579	-18.750	N.2	1	RES1	0.000	
12	  C7	-10.846	6.701	-18.027	C.3	1	RES1	0.000	
13	  N7	-15.837	5.443	-19.397	N.2	1	RES1	0.000	
14	  C8	-12.102	6.241	-17.330	C.3	1	RES1	0.000	
15	  C9	-13.342	6.666	-18.143	C.3	1	RES1	0.000	
16	 C10	-15.950	5.930	-15.890	C.2	1	RES1	0.000	
17	 C11	-16.489	5.941	-14.512	C.2	1	RES1	0.000	
18	 C12	-16.564	7.153	-13.813	C.2	1	RES1	0.000	
19	 C13	-17.035	7.142	-12.518	C.2	1	RES1	0.000	
20	 C14	-17.413	5.952	-11.899	C.2	1	RES1	0.000	
21	 C15	-19.040	6.744	-10.294	C.2	1	RES1	0.000	
22	 C16	-19.945	7.164	-11.281	C.2	1	RES1	0.000	
23	 C17	-20.981	8.009	-10.906	C.2	1	RES1	0.000	
24	 C18	-21.118	8.415	-9.588	C.2	1	RES1	0.000	
25	 C19	-20.193	8.017	-8.632	C.2	1	RES1	0.000	
26	 C20	-19.147	7.172	-8.983	C.2	1	RES1	0.000	
27	 C21	-17.316	4.766	-12.601	C.2	1	RES1	0.000	
28	 C22	-16.819	4.766	-13.909	C.2	1	RES1	0.000	
29	 C23	-16.582	5.464	-17.070	C.2	1	RES1	0.000	
30	 C24	-17.801	4.859	-17.450	C.2	1	RES1	0.000	
31	 C25	-17.022	4.887	-19.631	C.2	1	RES1	0.000	
32	 C26	-15.685	5.698	-18.092	C.2	1	RES1	0.000	
33	 C27	-13.319	8.181	-18.409	C.3	1	RES1	0.000	
@<TRIPOS>BOND
1 1 8 1
2 2 8 1
3 2 10 1
4 2 33 1
5 4 6 1
6 5 7 ar
7 5 15 1
8 6 8 1
9 10 12 1
10 12 14 1
11 14 15 1
12 7 16 ar
13 16 17 1
14 16 29 ar
15 17 18 ar
16 17 28 ar
17 18 19 ar
18 19 20 ar
19 3 20 1
20 20 27 ar
21 3 21 1
22 21 22 ar
23 21 26 ar
24 22 23 ar
25 23 24 ar
26 24 25 ar
27 25 26 ar
28 27 28 ar
29 29 30 ar
30 29 32 ar
31 9 30 1
32 11 30 ar
33 11 31 ar
34 13 31 ar
35 5 32 ar
36 13 32 ar
37 15 33 1
@<TRIPOS>SUBSTRUCTURE
1	RES1	1	GROUP	1 ****	RES
