# created with PyMOL 2.5.2
@<TRIPOS>MOLECULE
BTK_5P9J_TargetProtein
33 37 1                 
SMALL
USER_CHARGES
@<TRIPOS>ATOM
1	  N6	23.490	9.334	0.297	N.pl3	1	RES1	0.000	
2	  O6	22.885	9.754	-1.853	O.2	1	RES1	0.000	
3	  N7	21.179	6.774	1.891	N.2	1	RES1	0.000	
4	  O7	17.567	5.836	8.600	O.3	1	RES1	0.000	
5	  N8	20.933	6.870	3.263	N.2	1	RES1	0.000	
6	  N9	17.012	4.751	2.494	N.pl3	1	RES1	0.000	
7	 N10	18.026	4.838	0.368	N.2	1	RES1	0.000	
8	 N11	20.158	5.862	-0.125	N.2	1	RES1	0.000	
9	 C21	24.808	12.117	-0.381	C.3	1	RES1	0.000	
10	 C22	24.952	10.745	-1.081	C.3	1	RES1	0.000	
11	 C23	23.675	9.917	-0.932	C.2	1	RES1	0.000	
12	 C24	24.622	9.295	1.265	C.3	1	RES1	0.000	
13	 C25	24.860	7.874	1.758	C.3	1	RES1	0.000	
14	 C26	23.572	7.257	2.355	C.3	1	RES1	0.000	
15	 C27	22.429	7.338	1.352	C.3	1	RES1	0.000	
16	 C28	19.758	6.246	3.401	C.2	1	RES1	0.000	
17	 C29	19.204	6.107	4.735	C.2	1	RES1	0.000	
18	 C30	19.029	7.284	5.549	C.2	1	RES1	0.000	
19	 C31	18.474	7.137	6.809	C.2	1	RES1	0.000	
20	 C32	18.093	5.877	7.294	C.2	1	RES1	0.000	
21	 C33	16.611	6.809	8.923	C.2	1	RES1	0.000	
22	 C34	15.577	7.181	8.039	C.2	1	RES1	0.000	
23	 C35	14.677	8.174	8.393	C.2	1	RES1	0.000	
24	 C36	14.813	8.812	9.631	C.2	1	RES1	0.000	
25	 C37	15.842	8.464	10.487	C.2	1	RES1	0.000	
26	 C38	16.770	7.472	10.118	C.2	1	RES1	0.000	
27	 C39	18.289	4.736	6.504	C.2	1	RES1	0.000	
28	 C40	18.818	4.869	5.239	C.2	1	RES1	0.000	
29	 C41	19.222	5.782	2.163	C.2	1	RES1	0.000	
30	 C42	18.104	5.122	1.673	C.2	1	RES1	0.000	
31	 C43	19.036	5.215	-0.434	C.2	1	RES1	0.000	
32	 C44	20.185	6.141	1.225	C.2	1	RES1	0.000	
33	 C45	22.249	8.773	0.839	C.3	1	RES1	0.000	
@<TRIPOS>BOND
1 3 5 ar
2 7 30 ar
3 7 31 ar
4 8 31 ar
5 8 32 ar
6 9 10 1
7 10 11 1
8 1 11 1
9 2 11 2
10 1 12 1
11 12 13 1
12 13 14 1
13 14 15 1
14 3 15 1
15 15 33 1
16 5 16 ar
17 16 17 1
18 16 29 ar
19 17 18 ar
20 17 28 ar
21 18 19 ar
22 19 20 ar
23 4 20 1
24 20 27 ar
25 4 21 1
26 21 22 ar
27 21 26 ar
28 22 23 ar
29 23 24 ar
30 24 25 ar
31 25 26 ar
32 27 28 ar
33 29 30 ar
34 29 32 ar
35 6 30 1
36 3 32 ar
37 1 33 1
@<TRIPOS>SUBSTRUCTURE
1	RES1	1	GROUP	1 ****	RES
