# created with PyMOL 2.5.2
@<TRIPOS>MOLECULE
BTK_5P9I_TargetProtein
33 37 1                 
SMALL
USER_CHARGES
@<TRIPOS>ATOM
1	  O1	-12.798	9.785	-20.900	O.2	1	RES1	0.000	
2	  N2	-12.082	8.643	-19.034	N.pl3	1	RES1	0.000	
3	  O2	-17.932	5.883	-10.604	O.3	1	RES1	0.000	
4	  C3	-9.963	10.916	-20.025	C.3	1	RES1	0.000	
5	  N3	-14.609	6.279	-17.486	N.2	1	RES1	0.000	
6	  C4	-10.493	9.787	-20.519	C.3	1	RES1	0.000	
7	  N4	-14.778	6.443	-16.156	N.2	1	RES1	0.000	
8	  C5	-11.907	9.404	-20.184	C.2	1	RES1	0.000	
9	  N5	-18.908	4.636	-16.616	N.pl3	1	RES1	0.000	
10	  C6	-10.902	8.273	-18.242	C.3	1	RES1	0.000	
11	  N6	-18.011	4.543	-18.786	N.2	1	RES1	0.000	
12	  C7	-10.840	6.793	-17.961	C.3	1	RES1	0.000	
13	  N7	-15.797	5.387	-19.402	N.2	1	RES1	0.000	
14	  C8	-12.149	6.313	-17.289	C.3	1	RES1	0.000	
15	  C9	-13.366	6.709	-18.128	C.3	1	RES1	0.000	
16	 C10	-15.996	5.934	-15.908	C.2	1	RES1	0.000	
17	 C11	-16.494	5.897	-14.542	C.2	1	RES1	0.000	
18	 C12	-16.806	4.697	-13.924	C.2	1	RES1	0.000	
19	 C13	-17.309	4.665	-12.624	C.2	1	RES1	0.000	
20	 C14	-17.474	5.870	-11.929	C.2	1	RES1	0.000	
21	 C15	-18.978	6.730	-10.290	C.2	1	RES1	0.000	
22	 C16	-20.010	7.072	-11.210	C.2	1	RES1	0.000	
23	 C17	-21.030	7.919	-10.783	C.2	1	RES1	0.000	
24	 C18	-20.998	8.502	-9.523	C.2	1	RES1	0.000	
25	 C19	-20.004	8.182	-8.621	C.2	1	RES1	0.000	
26	 C20	-18.958	7.296	-9.031	C.2	1	RES1	0.000	
27	 C21	-17.139	7.076	-12.534	C.2	1	RES1	0.000	
28	 C22	-16.656	7.109	-13.813	C.2	1	RES1	0.000	
29	 C23	-16.604	5.478	-17.094	C.2	1	RES1	0.000	
30	 C24	-17.830	4.860	-17.495	C.2	1	RES1	0.000	
31	 C25	-17.007	4.800	-19.655	C.2	1	RES1	0.000	
32	 C26	-15.677	5.698	-18.093	C.2	1	RES1	0.000	
33	 C27	-13.365	8.201	-18.435	C.3	1	RES1	0.000	
@<TRIPOS>BOND
1 1 8 2
2 2 8 1
3 2 10 1
4 2 33 1
5 4 6 1
6 5 7 ar
7 5 15 1
8 6 8 1
9 10 12 1
10 12 14 1
11 14 15 1
12 7 16 ar
13 16 17 1
14 16 29 ar
15 17 18 ar
16 17 28 ar
17 18 19 ar
18 19 20 ar
19 3 20 1
20 20 27 ar
21 3 21 1
22 21 22 ar
23 21 26 ar
24 22 23 ar
25 23 24 ar
26 24 25 ar
27 25 26 ar
28 27 28 ar
29 29 30 ar
30 29 32 ar
31 9 30 1
32 11 30 ar
33 11 31 ar
34 13 31 ar
35 5 32 ar
36 13 32 ar
37 15 33 1
@<TRIPOS>SUBSTRUCTURE
1	RES1	1	GROUP	1 ****	RES
