# created with PyMOL 2.5.2
@<TRIPOS>MOLECULE
BTK_5P9J_TargetProtein
33 37 1                 
SMALL
USER_CHARGES
@<TRIPOS>ATOM
1	  O1	22.800	9.792	-1.784	O.3	1	RES1	0.000	
2	  N2	23.511	9.193	0.341	N.3	1	RES1	0.000	
3	  O2	17.522	5.773	8.558	O.3	1	RES1	0.000	
4	  C3	24.824	12.030	-0.380	C.3	1	RES1	0.000	
5	  N3	21.167	6.665	1.865	N.2	1	RES1	0.000	
6	  C4	24.890	10.691	-1.098	C.3	1	RES1	0.000	
7	  N4	20.904	6.794	3.204	N.2	1	RES1	0.000	
8	  C5	23.662	9.856	-0.910	C.3	1	RES1	0.000	
9	  N5	16.942	4.736	2.414	N.pl3	1	RES1	0.000	
10	  C6	24.643	9.113	1.260	C.3	1	RES1	0.000	
11	  N6	17.963	4.806	0.308	N.2	1	RES1	0.000	
12	  C7	24.849	7.716	1.751	C.3	1	RES1	0.000	
13	  N7	20.100	5.776	-0.121	N.2	1	RES1	0.000	
14	  C8	23.560	7.097	2.330	C.3	1	RES1	0.000	
15	  C9	22.401	7.202	1.303	C.3	1	RES1	0.000	
16	 C10	19.727	6.176	3.366	C.2	1	RES1	0.000	
17	 C11	19.147	6.051	4.695	C.2	1	RES1	0.000	
18	 C12	18.976	7.180	5.502	C.2	1	RES1	0.000	
19	 C13	18.410	7.070	6.779	C.2	1	RES1	0.000	
20	 C14	18.032	5.821	7.255	C.2	1	RES1	0.000	
21	 C15	16.571	6.753	8.888	C.2	1	RES1	0.000	
22	 C16	15.535	7.145	8.041	C.2	1	RES1	0.000	
23	 C17	14.643	8.153	8.444	C.2	1	RES1	0.000	
24	 C18	14.769	8.728	9.692	C.2	1	RES1	0.000	
25	 C19	15.834	8.355	10.546	C.2	1	RES1	0.000	
26	 C20	16.717	7.365	10.138	C.2	1	RES1	0.000	
27	 C21	18.261	4.672	6.466	C.2	1	RES1	0.000	
28	 C22	18.804	4.789	5.194	C.2	1	RES1	0.000	
29	 C23	19.213	5.726	2.129	C.2	1	RES1	0.000	
30	 C24	18.036	5.079	1.621	C.2	1	RES1	0.000	
31	 C25	18.973	5.146	-0.463	C.2	1	RES1	0.000	
32	 C26	20.163	6.043	1.184	C.2	1	RES1	0.000	
33	 C27	22.235	8.666	0.840	C.3	1	RES1	0.000	
@<TRIPOS>BOND
1 1 8 1
2 2 8 1
3 2 10 1
4 2 33 1
5 4 6 1
6 5 7 ar
7 5 15 1
8 6 8 1
9 10 12 1
10 12 14 1
11 14 15 1
12 7 16 ar
13 16 17 1
14 16 29 ar
15 17 18 ar
16 17 28 ar
17 18 19 ar
18 19 20 ar
19 3 20 1
20 20 27 ar
21 3 21 1
22 21 22 ar
23 21 26 ar
24 22 23 ar
25 23 24 ar
26 24 25 ar
27 25 26 ar
28 27 28 ar
29 29 30 ar
30 29 32 ar
31 9 30 1
32 11 30 ar
33 11 31 ar
34 13 31 ar
35 5 32 ar
36 13 32 ar
37 15 33 1
@<TRIPOS>SUBSTRUCTURE
1	RES1	1	GROUP	1 ****	RES
