# created with PyMOL 2.5.2
@<TRIPOS>MOLECULE
BTK_5P9J_TargetProtein
35 39 1                 
SMALL
USER_CHARGES
@<TRIPOS>ATOM
1	  N6	24.950	10.675	-3.928	N.1	1	RES1	0.000	
2	  O6	22.692	9.514	-1.714	O.2	1	RES1	0.000	
3	  N7	23.531	9.233	0.407	N.pl3	1	RES1	0.000	
4	  O7	17.474	5.705	8.537	O.3	1	RES1	0.000	
5	  N8	21.199	6.710	1.919	N.2	1	RES1	0.000	
6	  N9	20.935	6.769	3.248	N.2	1	RES1	0.000	
7	 N10	16.970	4.814	2.376	N.pl3	1	RES1	0.000	
8	 N11	17.981	4.909	0.279	N.2	1	RES1	0.000	
9	 N12	20.151	5.892	-0.121	N.2	1	RES1	0.000	
10	 C23	24.751	11.991	-0.722	C.3	1	RES1	0.000	
11	 C24	24.793	10.571	-1.311	C.3	1	RES1	0.000	
12	 C25	24.885	10.638	-2.755	C.1	1	RES1	0.000	
13	 C26	23.570	9.739	-0.904	C.2	1	RES1	0.000	
14	 C27	24.651	9.182	1.387	C.3	1	RES1	0.000	
15	 C28	24.884	7.763	1.863	C.3	1	RES1	0.000	
16	 C29	23.601	7.135	2.401	C.3	1	RES1	0.000	
17	 C30	22.438	7.254	1.393	C.3	1	RES1	0.000	
18	 C31	19.748	6.176	3.391	C.2	1	RES1	0.000	
19	 C32	19.147	6.027	4.702	C.2	1	RES1	0.000	
20	 C33	19.002	7.152	5.539	C.2	1	RES1	0.000	
21	 C34	18.422	7.040	6.800	C.2	1	RES1	0.000	
22	 C35	17.992	5.769	7.243	C.2	1	RES1	0.000	
23	 C36	16.556	6.706	8.887	C.2	1	RES1	0.000	
24	 C37	15.532	7.149	8.029	C.2	1	RES1	0.000	
25	 C38	14.681	8.172	8.419	C.2	1	RES1	0.000	
26	 C39	14.817	8.743	9.672	C.2	1	RES1	0.000	
27	 C40	15.836	8.328	10.527	C.2	1	RES1	0.000	
28	 C41	16.705	7.290	10.158	C.2	1	RES1	0.000	
29	 C42	18.185	4.649	6.434	C.2	1	RES1	0.000	
30	 C43	18.749	4.770	5.178	C.2	1	RES1	0.000	
31	 C44	19.224	5.775	2.124	C.2	1	RES1	0.000	
32	 C45	18.059	5.157	1.605	C.2	1	RES1	0.000	
33	 C46	19.034	5.282	-0.511	C.2	1	RES1	0.000	
34	 C47	20.202	6.086	1.199	C.2	1	RES1	0.000	
35	 C48	22.271	8.704	0.923	C.3	1	RES1	0.000	
@<TRIPOS>BOND
1 5 6 ar
2 7 32 1
3 8 32 ar
4 8 33 ar
5 9 33 ar
6 9 34 ar
7 10 11 1
8 11 12 1
9 11 13 1
10 1 12 3
11 2 13 2
12 3 13 1
13 3 14 1
14 14 15 1
15 15 16 1
16 16 17 1
17 5 17 1
18 17 35 1
19 6 18 ar
20 18 19 1
21 18 31 ar
22 19 20 ar
23 19 30 ar
24 20 21 ar
25 21 22 ar
26 4 22 1
27 22 29 ar
28 4 23 1
29 23 24 ar
30 23 28 ar
31 24 25 ar
32 25 26 ar
33 26 27 ar
34 27 28 ar
35 29 30 ar
36 31 32 ar
37 31 34 ar
38 5 34 ar
39 3 35 1
@<TRIPOS>SUBSTRUCTURE
1	RES1	1	GROUP	1 ****	RES
