# created with PyMOL 2.5.2
@<TRIPOS>MOLECULE
BRD4_6DL2_TargetProtein
22 25 1                 
SMALL
USER_CHARGES
@<TRIPOS>ATOM
1	  C1	11.822	4.622	-2.671	C.3	1	RES1	0.000	
2	  N1	13.562	3.930	-1.097	N.2	1	RES1	0.000	
3	  O1	12.327	6.222	2.431	O.3	1	RES1	0.000	
4	  S1	9.296	5.334	-0.994	S.2	1	RES1	0.000	
5	  C2	12.366	4.454	-1.306	C.2	1	RES1	0.000	
6	  N2	13.844	4.037	0.242	N.2	1	RES1	0.000	
7	  C3	12.804	4.589	0.821	C.2	1	RES1	0.000	
8	  C4	12.724	4.888	2.272	C.3	1	RES1	0.000	
9	  C5	10.905	6.315	2.603	C.3	1	RES1	0.000	
10	  C6	10.095	6.030	1.387	C.2	1	RES1	0.000	
11	  C7	10.534	5.421	0.205	C.2	1	RES1	0.000	
12	  C8	8.163	6.121	0.022	C.2	1	RES1	0.000	
13	  N8	11.813	4.863	-0.096	N.2	1	RES1	0.000	
14	  C9	6.792	6.380	-0.478	C.3	1	RES1	0.000	
15	 C32	8.697	6.415	1.286	C.2	1	RES1	0.000	
16	 C33	7.893	7.087	2.374	C.3	1	RES1	0.000	
17	 C34	7.608	6.062	3.448	C.2	1	RES1	0.000	
18	 C35	6.972	4.846	3.179	C.2	1	RES1	0.000	
19	 C36	6.695	3.936	4.200	C.2	1	RES1	0.000	
20	 C37	7.086	4.223	5.518	C.2	1	RES1	0.000	
21	 C38	7.697	5.441	5.815	C.2	1	RES1	0.000	
22	 C39	7.980	6.357	4.779	C.2	1	RES1	0.000	
@<TRIPOS>BOND
1 1 5 1
2 2 5 ar
3 2 6 ar
4 3 8 1
5 3 9 1
6 4 11 ar
7 4 12 ar
8 5 13 ar
9 6 7 ar
10 7 8 1
11 7 13 ar
12 9 10 1
13 10 11 ar
14 11 13 1
15 12 14 1
16 10 15 ar
17 12 15 ar
18 15 16 1
19 16 17 1
20 17 18 ar
21 17 22 ar
22 18 19 ar
23 19 20 ar
24 20 21 ar
25 21 22 ar
@<TRIPOS>SUBSTRUCTURE
1	RES1	1	GROUP	1 ****	RES
