# created with PyMOL 2.5.2
@<TRIPOS>MOLECULE
BTK_5P9I_TargetProtein
33 37 1                 
SMALL
USER_CHARGES
@<TRIPOS>ATOM
1	  N6	-12.000	8.645	-18.901	N.3	1	RES1	0.000	
2	  O6	-13.076	9.727	-20.636	O.3	1	RES1	0.000	
3	  N7	-14.550	6.251	-17.444	N.2	1	RES1	0.000	
4	  O7	-17.951	5.842	-10.617	O.3	1	RES1	0.000	
5	  N8	-14.724	6.397	-16.135	N.2	1	RES1	0.000	
6	  N9	-18.888	4.711	-16.640	N.pl3	1	RES1	0.000	
7	 N10	-17.986	4.651	-18.833	N.2	1	RES1	0.000	
8	 N11	-15.775	5.447	-19.389	N.2	1	RES1	0.000	
9	 C23	-10.144	10.920	-20.306	C.3	1	RES1	0.000	
10	 C24	-10.726	9.773	-20.679	C.3	1	RES1	0.000	
11	 C25	-12.043	9.381	-20.109	C.3	1	RES1	0.000	
12	 C26	-10.808	8.236	-18.175	C.3	1	RES1	0.000	
13	 C27	-10.798	6.732	-17.901	C.3	1	RES1	0.000	
14	 C28	-12.085	6.246	-17.268	C.3	1	RES1	0.000	
15	 C29	-13.305	6.714	-18.081	C.3	1	RES1	0.000	
16	 C30	-15.958	5.928	-15.898	C.2	1	RES1	0.000	
17	 C31	-16.484	5.880	-14.522	C.2	1	RES1	0.000	
18	 C32	-16.809	4.662	-13.945	C.2	1	RES1	0.000	
19	 C33	-17.301	4.614	-12.630	C.2	1	RES1	0.000	
20	 C34	-17.455	5.820	-11.924	C.2	1	RES1	0.000	
21	 C35	-19.016	6.744	-10.296	C.2	1	RES1	0.000	
22	 C36	-19.967	7.065	-11.274	C.2	1	RES1	0.000	
23	 C37	-20.969	7.974	-10.908	C.2	1	RES1	0.000	
24	 C38	-21.003	8.538	-9.623	C.2	1	RES1	0.000	
25	 C39	-20.018	8.226	-8.745	C.2	1	RES1	0.000	
26	 C40	-19.006	7.318	-9.033	C.2	1	RES1	0.000	
27	 C41	-17.105	6.997	-12.489	C.2	1	RES1	0.000	
28	 C42	-16.625	7.064	-13.779	C.2	1	RES1	0.000	
29	 C43	-16.574	5.479	-17.106	C.2	1	RES1	0.000	
30	 C44	-17.805	4.963	-17.511	C.2	1	RES1	0.000	
31	 C45	-16.988	4.898	-19.653	C.2	1	RES1	0.000	
32	 C46	-15.653	5.705	-18.087	C.2	1	RES1	0.000	
33	 C47	-13.270	8.228	-18.295	C.3	1	RES1	0.000	
@<TRIPOS>BOND
1 3 5 ar
2 7 30 ar
3 7 31 ar
4 8 31 ar
5 8 32 ar
6 9 10 1
7 10 11 1
8 1 11 1
9 2 11 1
10 1 12 1
11 12 13 1
12 13 14 1
13 14 15 1
14 3 15 1
15 15 33 1
16 5 16 ar
17 16 17 1
18 16 29 ar
19 17 18 ar
20 17 28 ar
21 18 19 ar
22 19 20 ar
23 4 20 1
24 20 27 ar
25 4 21 1
26 21 22 ar
27 21 26 ar
28 22 23 ar
29 23 24 ar
30 24 25 ar
31 25 26 ar
32 27 28 ar
33 29 30 ar
34 29 32 ar
35 6 30 1
36 3 32 ar
37 1 33 1
@<TRIPOS>SUBSTRUCTURE
1	RES1	1	GROUP	1 ****	RES
