# created with PyMOL 2.5.2
@<TRIPOS>MOLECULE
BTK_5P9I_TargetProtein
33 37 1                 
SMALL
USER_CHARGES
@<TRIPOS>ATOM
1	  O1	-12.830	9.809	-20.929	O.3	1	RES1	0.000	
2	  N2	-12.110	8.702	-19.051	N.3	1	RES1	0.000	
3	  O2	-18.004	5.870	-10.624	O.3	1	RES1	0.000	
4	  C3	-9.897	10.871	-20.050	C.3	1	RES1	0.000	
5	  N3	-14.580	6.262	-17.492	N.2	1	RES1	0.000	
6	  C4	-10.500	9.759	-20.534	C.3	1	RES1	0.000	
7	  N4	-14.701	6.389	-16.148	N.2	1	RES1	0.000	
8	  C5	-11.940	9.440	-20.188	C.3	1	RES1	0.000	
9	  N5	-18.789	4.442	-16.570	N.pl3	1	RES1	0.000	
10	  C6	-10.896	8.289	-18.281	C.3	1	RES1	0.000	
11	  N6	-18.015	4.552	-18.775	N.2	1	RES1	0.000	
12	  C7	-10.853	6.815	-18.019	C.3	1	RES1	0.000	
13	  N7	-15.839	5.444	-19.408	N.2	1	RES1	0.000	
14	  C8	-12.117	6.289	-17.347	C.3	1	RES1	0.000	
15	  C9	-13.340	6.709	-18.158	C.3	1	RES1	0.000	
16	 C10	-15.937	5.896	-15.885	C.2	1	RES1	0.000	
17	 C11	-16.464	5.921	-14.531	C.2	1	RES1	0.000	
18	 C12	-16.551	7.103	-13.801	C.2	1	RES1	0.000	
19	 C13	-17.045	7.101	-12.498	C.2	1	RES1	0.000	
20	 C14	-17.509	5.933	-11.931	C.2	1	RES1	0.000	
21	 C15	-19.003	6.755	-10.285	C.2	1	RES1	0.000	
22	 C16	-20.001	7.156	-11.206	C.2	1	RES1	0.000	
23	 C17	-21.003	8.028	-10.802	C.2	1	RES1	0.000	
24	 C18	-21.032	8.505	-9.482	C.2	1	RES1	0.000	
25	 C19	-20.073	8.061	-8.566	C.2	1	RES1	0.000	
26	 C20	-19.073	7.206	-8.960	C.2	1	RES1	0.000	
27	 C21	-17.420	4.713	-12.651	C.2	1	RES1	0.000	
28	 C22	-16.911	4.714	-13.957	C.2	1	RES1	0.000	
29	 C23	-16.588	5.436	-17.072	C.2	1	RES1	0.000	
30	 C24	-17.777	4.815	-17.447	C.2	1	RES1	0.000	
31	 C25	-17.039	4.883	-19.648	C.2	1	RES1	0.000	
32	 C26	-15.662	5.693	-18.093	C.2	1	RES1	0.000	
33	 C27	-13.366	8.213	-18.444	C.3	1	RES1	0.000	
@<TRIPOS>BOND
1 1 8 1
2 2 8 1
3 2 10 1
4 2 33 1
5 4 6 1
6 5 7 ar
7 5 15 1
8 6 8 1
9 10 12 1
10 12 14 1
11 14 15 1
12 7 16 ar
13 16 17 1
14 16 29 ar
15 17 18 ar
16 17 28 ar
17 18 19 ar
18 19 20 ar
19 3 20 1
20 20 27 ar
21 3 21 1
22 21 22 ar
23 21 26 ar
24 22 23 ar
25 23 24 ar
26 24 25 ar
27 25 26 ar
28 27 28 ar
29 29 30 ar
30 29 32 ar
31 9 30 1
32 11 30 ar
33 11 31 ar
34 13 31 ar
35 5 32 ar
36 13 32 ar
37 15 33 1
@<TRIPOS>SUBSTRUCTURE
1	RES1	1	GROUP	1 ****	RES
