# created with PyMOL 2.5.2
@<TRIPOS>MOLECULE
BTK_5P9J_TargetProtein
33 37 1                 
SMALL
USER_CHARGES
@<TRIPOS>ATOM
1	  O1	22.877	9.643	-1.866	O.2	1	RES1	0.000	
2	  N2	23.518	9.211	0.321	N.pl3	1	RES1	0.000	
3	  O2	17.481	5.775	8.531	O.3	1	RES1	0.000	
4	  C3	24.899	11.977	-0.538	C.3	1	RES1	0.000	
5	  N3	21.155	6.706	1.883	N.2	1	RES1	0.000	
6	  C4	24.955	10.606	-1.184	C.3	1	RES1	0.000	
7	  N4	20.938	6.813	3.216	N.2	1	RES1	0.000	
8	  C5	23.693	9.798	-0.958	C.2	1	RES1	0.000	
9	  N5	16.972	4.763	2.437	N.pl3	1	RES1	0.000	
10	  C6	24.653	9.152	1.252	C.3	1	RES1	0.000	
11	  N6	17.965	4.813	0.324	N.2	1	RES1	0.000	
12	  C7	24.838	7.725	1.732	C.3	1	RES1	0.000	
13	  N7	20.130	5.833	-0.119	N.2	1	RES1	0.000	
14	  C8	23.579	7.145	2.341	C.3	1	RES1	0.000	
15	  C9	22.414	7.233	1.337	C.3	1	RES1	0.000	
16	 C10	19.742	6.200	3.382	C.2	1	RES1	0.000	
17	 C11	19.155	6.079	4.719	C.2	1	RES1	0.000	
18	 C12	18.827	4.820	5.225	C.2	1	RES1	0.000	
19	 C13	18.283	4.702	6.507	C.2	1	RES1	0.000	
20	 C14	18.052	5.852	7.270	C.2	1	RES1	0.000	
21	 C15	16.528	6.748	8.885	C.2	1	RES1	0.000	
22	 C16	15.641	7.307	7.995	C.2	1	RES1	0.000	
23	 C17	14.730	8.276	8.423	C.2	1	RES1	0.000	
24	 C18	14.707	8.640	9.779	C.2	1	RES1	0.000	
25	 C19	15.594	8.059	10.674	C.2	1	RES1	0.000	
26	 C20	16.512	7.098	10.238	C.2	1	RES1	0.000	
27	 C21	18.373	7.115	6.762	C.2	1	RES1	0.000	
28	 C22	18.919	7.219	5.484	C.2	1	RES1	0.000	
29	 C23	19.208	5.768	2.128	C.2	1	RES1	0.000	
30	 C24	18.048	5.117	1.654	C.2	1	RES1	0.000	
31	 C25	18.988	5.205	-0.490	C.2	1	RES1	0.000	
32	 C26	20.164	6.080	1.189	C.2	1	RES1	0.000	
33	 C27	22.244	8.676	0.823	C.3	1	RES1	0.000	
@<TRIPOS>BOND
1 1 8 2
2 2 8 1
3 2 10 1
4 2 33 1
5 4 6 1
6 5 7 ar
7 5 15 1
8 6 8 1
9 10 12 1
10 12 14 1
11 14 15 1
12 7 16 ar
13 16 17 1
14 16 29 ar
15 17 18 ar
16 17 28 ar
17 18 19 ar
18 19 20 ar
19 3 20 1
20 20 27 ar
21 3 21 1
22 21 22 ar
23 21 26 ar
24 22 23 ar
25 23 24 ar
26 24 25 ar
27 25 26 ar
28 27 28 ar
29 29 30 ar
30 29 32 ar
31 9 30 1
32 11 30 ar
33 11 31 ar
34 13 31 ar
35 5 32 ar
36 13 32 ar
37 15 33 1
@<TRIPOS>SUBSTRUCTURE
1	RES1	1	GROUP	1 ****	RES
