# created with PyMOL 2.5.2
@<TRIPOS>MOLECULE
BTK_5P9J_TargetProtein
34 38 1                 
SMALL
USER_CHARGES
@<TRIPOS>ATOM
1	  N6	24.726	13.158	-0.582	N.3	1	RES1	0.000	
2	  N7	23.505	9.242	0.371	N.pl3	1	RES1	0.000	
3	  O7	22.898	9.655	-1.816	O.2	1	RES1	0.000	
4	  N8	21.160	6.726	1.918	N.2	1	RES1	0.000	
5	  O8	17.486	5.703	8.567	O.3	1	RES1	0.000	
6	  N9	20.920	6.794	3.282	N.2	1	RES1	0.000	
7	 N10	16.950	4.775	2.449	N.pl3	1	RES1	0.000	
8	 N11	17.947	4.875	0.320	N.2	1	RES1	0.000	
9	 N12	20.108	5.861	-0.123	N.2	1	RES1	0.000	
10	 C25	24.942	10.604	-1.120	C.3	1	RES1	0.000	
11	 C26	24.785	12.008	-0.823	C.3	1	RES1	0.000	
12	 C27	23.681	9.827	-0.890	C.2	1	RES1	0.000	
13	 C28	24.640	9.160	1.301	C.3	1	RES1	0.000	
14	 C29	24.864	7.747	1.784	C.3	1	RES1	0.000	
15	 C30	23.562	7.121	2.375	C.3	1	RES1	0.000	
16	 C31	22.408	7.251	1.375	C.3	1	RES1	0.000	
17	 C32	19.725	6.178	3.395	C.2	1	RES1	0.000	
18	 C33	19.135	6.037	4.711	C.2	1	RES1	0.000	
19	 C34	18.973	7.171	5.557	C.2	1	RES1	0.000	
20	 C35	18.431	7.014	6.819	C.2	1	RES1	0.000	
21	 C36	18.016	5.759	7.277	C.2	1	RES1	0.000	
22	 C37	16.557	6.691	8.912	C.2	1	RES1	0.000	
23	 C38	15.550	7.090	8.014	C.2	1	RES1	0.000	
24	 C39	14.659	8.115	8.393	C.2	1	RES1	0.000	
25	 C40	14.808	8.734	9.624	C.2	1	RES1	0.000	
26	 C41	15.842	8.353	10.494	C.2	1	RES1	0.000	
27	 C42	16.713	7.333	10.119	C.2	1	RES1	0.000	
28	 C43	18.194	4.622	6.481	C.2	1	RES1	0.000	
29	 C44	18.777	4.788	5.187	C.2	1	RES1	0.000	
30	 C45	19.186	5.742	2.139	C.2	1	RES1	0.000	
31	 C46	18.035	5.130	1.640	C.2	1	RES1	0.000	
32	 C47	18.966	5.247	-0.465	C.2	1	RES1	0.000	
33	 C48	20.131	6.101	1.203	C.2	1	RES1	0.000	
34	 C49	22.232	8.699	0.884	C.3	1	RES1	0.000	
@<TRIPOS>BOND
1 4 6 ar
2 7 31 1
3 8 31 ar
4 8 32 ar
5 9 32 ar
6 9 33 ar
7 10 11 1
8 10 12 1
9 1 11 1
10 2 12 1
11 3 12 2
12 2 13 1
13 13 14 1
14 14 15 1
15 15 16 1
16 4 16 1
17 16 34 1
18 6 17 ar
19 17 18 1
20 17 30 ar
21 18 19 ar
22 18 29 ar
23 19 20 ar
24 20 21 ar
25 5 21 1
26 21 28 ar
27 5 22 1
28 22 23 ar
29 22 27 ar
30 23 24 ar
31 24 25 ar
32 25 26 ar
33 26 27 ar
34 28 29 ar
35 30 31 ar
36 30 33 ar
37 4 33 ar
38 2 34 1
@<TRIPOS>SUBSTRUCTURE
1	RES1	1	GROUP	1 ****	RES
