# created with PyMOL 2.5.2
@<TRIPOS>MOLECULE
FLT3_5X02_TargetProtein
39 40 1                 
SMALL
USER_CHARGES
@<TRIPOS>ATOM
1	  C1	-26.850	6.844	-10.449	C.3	1	RES1	0.000	
2	  N1	-29.043	7.203	-8.608	N.pl3	1	RES1	0.000	
3	  O1	-30.002	15.617	-4.068	O.2	1	RES1	0.000	
4	  C2	-28.271	6.530	-10.902	C.3	1	RES1	0.000	
5	  N2	-28.675	5.481	-7.001	N.2	1	RES1	0.000	
6	  O2	-28.806	13.365	0.180	O.2	1	RES1	0.000	
7	  C3	-29.185	6.248	-9.685	C.3	1	RES1	0.000	
8	  N3	-28.361	3.682	-5.588	N.pl3	1	RES1	0.000	
9	  C4	-28.838	6.782	-7.251	C.2	1	RES1	0.000	
10	  N4	-28.837	-1.700	-9.836	N.1	1	RES1	0.000	
11	  C5	-28.461	5.068	-5.734	C.2	1	RES1	0.000	
12	  N5	-28.386	5.921	-4.700	N.2	1	RES1	0.000	
13	  C6	-28.463	2.589	-6.528	C.2	1	RES1	0.000	
14	  N6	-28.449	13.961	-3.715	N.pl3	1	RES1	0.000	
15	  C7	-28.636	2.759	-7.894	C.2	1	RES1	0.000	
16	  N7	-27.896	14.983	-1.189	N.pl3	1	RES1	0.000	
17	  C8	-28.722	1.660	-8.765	C.2	1	RES1	0.000	
18	  N8	-24.997	12.962	3.513	N.3	1	RES1	0.000	
19	  C9	-28.638	0.387	-8.254	C.2	1	RES1	0.000	
20	 C10	-28.723	-0.764	-9.123	C.1	1	RES1	0.000	
21	 C11	-28.457	0.198	-6.888	C.2	1	RES1	0.000	
22	 C12	-28.359	1.286	-6.025	C.2	1	RES1	0.000	
23	 C13	-28.524	7.228	-4.965	C.2	1	RES1	0.000	
24	 C14	-28.767	7.728	-6.249	C.2	1	RES1	0.000	
25	 C15	-28.895	9.127	-6.426	C.3	1	RES1	0.000	
26	 C16	-29.074	10.318	-6.576	C.3	1	RES1	0.000	
27	 C17	-29.362	11.737	-6.749	C.3	1	RES1	0.000	
28	 C18	-29.556	12.515	-5.402	C.3	1	RES1	0.000	
29	 C19	-28.391	13.459	-5.068	C.3	1	RES1	0.000	
30	 C20	-29.262	15.011	-3.327	C.2	1	RES1	0.000	
31	 C21	-29.220	15.279	-1.812	C.3	1	RES1	0.000	
32	 C22	-29.722	16.712	-1.471	C.3	1	RES1	0.000	
33	 C23	-26.723	15.649	-1.751	C.3	1	RES1	0.000	
34	 C24	-27.829	14.032	-0.158	C.2	1	RES1	0.000	
35	 C25	-26.513	13.850	0.512	C.3	1	RES1	0.000	
36	 C26	-26.316	12.806	1.350	C.3	1	RES1	0.000	
37	 C27	-25.033	12.563	2.092	C.3	1	RES1	0.000	
38	 C28	-24.794	11.831	4.423	C.3	1	RES1	0.000	
39	 C29	-24.027	14.056	3.788	C.3	1	RES1	0.000	
@<TRIPOS>BOND
1 1 4 1
2 2 7 1
3 2 9 1
4 3 30 2
5 4 7 1
6 5 9 ar
7 5 11 ar
8 6 34 2
9 8 11 1
10 8 13 1
11 11 12 ar
12 13 15 ar
13 15 17 ar
14 17 19 ar
15 10 20 3
16 19 20 1
17 19 21 ar
18 21 22 ar
19 13 22 ar
20 12 23 ar
21 23 24 ar
22 9 24 ar
23 24 25 1
24 25 26 1
25 26 27 1
26 27 28 1
27 28 29 1
28 14 29 1
29 14 30 1
30 30 31 1
31 16 31 1
32 31 32 1
33 16 33 1
34 16 34 1
35 34 35 1
36 35 36 1
37 36 37 1
38 18 37 1
39 18 38 1
40 18 39 1
@<TRIPOS>SUBSTRUCTURE
1	RES1	1	GROUP	1 ****	RES
