# created with PyMOL 2.5.2
@<TRIPOS>MOLECULE
FLT3_5X02_TargetProtein
43 44 1                 
SMALL
USER_CHARGES
@<TRIPOS>ATOM
1	  C1	-27.235	6.978	-10.517	C.3	1	RES1	0.000	
2	  N1	-29.348	7.009	-8.584	N.pl3	1	RES1	0.000	
3	  O1	-29.858	15.630	-4.057	O.2	1	RES1	0.000	
4	  C2	-28.663	6.518	-10.906	C.3	1	RES1	0.000	
5	  N2	-28.736	5.441	-6.987	N.2	1	RES1	0.000	
6	  O2	-28.417	13.379	0.356	O.2	1	RES1	0.000	
7	  C3	-29.468	6.059	-9.686	C.3	1	RES1	0.000	
8	  N3	-28.126	3.687	-5.621	N.pl3	1	RES1	0.000	
9	  C4	-28.985	6.762	-7.248	C.2	1	RES1	0.000	
10	  N4	-28.801	-1.679	-9.812	N.1	1	RES1	0.000	
11	  C5	-28.352	5.064	-5.745	C.2	1	RES1	0.000	
12	  N5	-28.214	5.933	-4.718	N.2	1	RES1	0.000	
13	  C6	-28.292	2.627	-6.560	C.2	1	RES1	0.000	
14	  N6	-28.326	13.940	-3.689	N.pl3	1	RES1	0.000	
15	  C7	-28.113	1.312	-6.064	C.2	1	RES1	0.000	
16	  N7	-27.697	14.973	-1.162	N.pl3	1	RES1	0.000	
17	  C8	-28.232	0.214	-6.909	C.2	1	RES1	0.000	
18	  N8	-24.402	15.656	-0.235	N.3	1	RES1	0.000	
19	  C9	-28.561	0.390	-8.262	C.2	1	RES1	0.000	
20	  N9	-24.957	12.748	3.484	N.3	1	RES1	0.000	
21	 C10	-28.704	-0.745	-9.130	C.1	1	RES1	0.000	
22	 C11	-28.742	1.677	-8.761	C.2	1	RES1	0.000	
23	 C12	-28.623	2.760	-7.908	C.2	1	RES1	0.000	
24	 C13	-28.472	7.227	-5.005	C.2	1	RES1	0.000	
25	 C14	-28.866	7.706	-6.238	C.2	1	RES1	0.000	
26	 C15	-29.086	9.125	-6.368	C.3	1	RES1	0.000	
27	 C16	-29.229	10.316	-6.482	C.3	1	RES1	0.000	
28	 C17	-29.361	11.751	-6.683	C.3	1	RES1	0.000	
29	 C18	-29.517	12.551	-5.378	C.3	1	RES1	0.000	
30	 C19	-28.303	13.434	-5.042	C.3	1	RES1	0.000	
31	 C20	-29.111	15.030	-3.286	C.2	1	RES1	0.000	
32	 C21	-29.044	15.295	-1.777	C.3	1	RES1	0.000	
33	 C22	-29.499	16.720	-1.451	C.3	1	RES1	0.000	
34	 C23	-26.565	15.744	-1.668	C.3	1	RES1	0.000	
35	 C24	-27.505	14.054	-0.131	C.2	1	RES1	0.000	
36	 C25	-26.167	13.882	0.443	C.3	1	RES1	0.000	
37	 C26	-25.185	14.851	0.096	C.3	1	RES1	0.000	
38	 C27	-25.998	12.821	1.279	C.3	1	RES1	0.000	
39	 C28	-24.819	12.273	2.068	C.3	1	RES1	0.000	
40	 C29	-24.639	10.732	2.019	C.3	1	RES1	0.000	
41	 C30	-23.574	12.868	1.398	C.3	1	RES1	0.000	
42	 C31	-24.944	14.209	3.671	C.3	1	RES1	0.000	
43	 C32	-26.118	12.145	4.240	C.3	1	RES1	0.000	
@<TRIPOS>BOND
1 1 4 1
2 2 7 1
3 2 9 1
4 3 31 2
5 4 7 1
6 5 9 ar
7 5 11 ar
8 6 35 2
9 8 11 1
10 8 13 1
11 11 12 ar
12 13 15 ar
13 15 17 ar
14 17 19 ar
15 10 21 3
16 19 21 1
17 19 22 ar
18 22 23 ar
19 13 23 ar
20 12 24 ar
21 24 25 ar
22 9 25 ar
23 25 26 1
24 26 27 1
25 27 28 1
26 28 29 1
27 29 30 1
28 14 30 1
29 14 31 1
30 31 32 1
31 16 32 1
32 32 33 1
33 16 34 1
34 16 35 1
35 35 36 1
36 36 37 1
37 36 38 1
38 18 37 1
39 38 39 1
40 20 39 1
41 39 40 1
42 39 41 1
43 20 42 1
44 20 43 1
@<TRIPOS>SUBSTRUCTURE
1	RES1	1	GROUP	1 ****	RES
