# created with PyMOL 2.5.2
@<TRIPOS>MOLECULE
CDK8_5BNJ_TargetProtein
30 34 1                 
SMALL
USER_CHARGES
@<TRIPOS>ATOM
1	 CL1	41.848	60.941	56.842	Cl	1	RES1	0.000	
2	  N3	38.462	56.057	47.076	N.2	1	RES1	0.000	
3	  O3	37.066	59.560	56.270	O.2	1	RES1	0.000	
4	  N4	44.045	61.245	53.550	N.2	1	RES1	0.000	
5	  N5	40.418	59.219	54.617	N.pl3	1	RES1	0.000	
6	  N6	36.396	57.437	56.833	N.pl3	1	RES1	0.000	
7	  N7	39.128	54.911	47.384	N.2	1	RES1	0.000	
8	 C14	37.523	56.031	45.950	C.3	1	RES1	0.000	
9	 C15	38.758	57.102	47.881	C.2	1	RES1	0.000	
10	 C16	39.693	56.633	48.785	C.2	1	RES1	0.000	
11	 C17	40.331	57.436	49.863	C.2	1	RES1	0.000	
12	 C18	40.824	56.832	51.033	C.2	1	RES1	0.000	
13	 C19	41.420	57.582	52.027	C.2	1	RES1	0.000	
14	 C20	41.540	58.965	51.912	C.2	1	RES1	0.000	
15	 C21	42.149	59.790	52.966	C.2	1	RES1	0.000	
16	 C22	43.365	60.446	52.681	C.2	1	RES1	0.000	
17	 C23	43.493	61.355	54.781	C.2	1	RES1	0.000	
18	 C24	42.351	60.731	55.179	C.2	1	RES1	0.000	
19	 C25	41.611	59.937	54.256	C.2	1	RES1	0.000	
20	 C26	39.179	59.480	53.897	C.3	1	RES1	0.000	
21	 C27	38.318	58.183	53.882	C.3	1	RES1	0.000	
22	 C28	38.154	57.572	55.275	C.3	1	RES1	0.000	
23	 C29	37.438	56.214	55.165	C.3	1	RES1	0.000	
24	 C30	36.703	56.076	56.481	C.3	1	RES1	0.000	
25	 C31	37.162	58.356	56.139	C.2	1	RES1	0.000	
26	 C32	39.491	57.459	56.013	C.3	1	RES1	0.000	
27	 C33	40.313	58.721	55.998	C.3	1	RES1	0.000	
28	 C34	41.049	59.567	50.728	C.2	1	RES1	0.000	
29	 C35	40.469	58.823	49.745	C.2	1	RES1	0.000	
30	 C36	39.887	55.292	48.421	C.2	1	RES1	0.000	
@<TRIPOS>BOND
1 1 18 1
2 2 7 ar
3 3 25 2
4 2 8 1
5 2 9 ar
6 9 10 ar
7 10 11 1
8 10 30 ar
9 11 12 ar
10 11 29 ar
11 12 13 ar
12 13 14 ar
13 14 15 1
14 14 28 ar
15 15 16 ar
16 15 19 ar
17 4 16 ar
18 4 17 ar
19 17 18 ar
20 18 19 ar
21 5 19 1
22 5 20 1
23 20 21 1
24 21 22 1
25 22 23 1
26 22 25 1
27 22 26 1
28 23 24 1
29 6 24 1
30 6 25 1
31 26 27 1
32 5 27 1
33 28 29 ar
34 7 30 ar
@<TRIPOS>SUBSTRUCTURE
1	RES1	1	GROUP	1 ****	RES
