# created with PyMOL 2.5.2
@<TRIPOS>MOLECULE
RIPK2_4C8B_TargetProtein
39 43 1                 
SMALL
USER_CHARGES
@<TRIPOS>ATOM
1	  C1	6.799	0.364	-4.121	C.3	1	RES1	0.000	
2	  N1	9.390	-5.263	-2.100	N.pl3	1	RES1	0.000	
3	  O1	11.301	-4.059	-2.714	O.2	1	RES1	0.000	
4	  C2	7.643	-0.791	-3.708	C.2	1	RES1	0.000	
5	  N2	11.028	-11.452	-1.727	N.3	1	RES1	0.000	
6	  C3	7.060	-1.904	-3.084	C.2	1	RES1	0.000	
7	  N3	9.808	-12.154	-4.332	N.3	1	RES1	0.000	
8	  C4	7.847	-3.001	-2.711	C.2	1	RES1	0.000	
9	  C5	9.220	-3.001	-2.959	C.2	1	RES1	0.000	
10	  C6	10.088	-4.164	-2.587	C.2	1	RES1	0.000	
11	  C7	9.977	-6.524	-1.707	C.2	1	RES1	0.000	
12	  N7	11.525	3.722	-7.484	N.2	1	RES1	0.000	
13	  C8	9.319	-7.690	-2.095	C.2	1	RES1	0.000	
14	  N8	11.138	3.758	-3.971	N.2	1	RES1	0.000	
15	  C9	9.873	-8.900	-1.784	C.2	1	RES1	0.000	
16	  N9	11.172	3.496	-5.313	N.2	1	RES1	0.000	
17	 C10	11.054	-9.048	-1.048	C.2	1	RES1	0.000	
18	 C11	11.540	-10.458	-0.756	C.3	1	RES1	0.000	
19	 C12	11.812	-11.405	-3.022	C.3	1	RES1	0.000	
20	 C13	11.224	-12.379	-4.048	C.3	1	RES1	0.000	
21	 C14	9.283	-13.106	-5.314	C.3	1	RES1	0.000	
22	 C38	9.043	-12.175	-3.068	C.3	1	RES1	0.000	
23	 C39	9.608	-11.187	-2.038	C.3	1	RES1	0.000	
24	 C40	11.718	-7.883	-0.672	C.2	1	RES1	0.000	
25	 C41	13.023	-7.893	0.135	C.3	1	RES1	0.000	
26	 C42	11.171	-6.619	-1.002	C.2	1	RES1	0.000	
27	 C43	9.792	-1.924	-3.618	C.2	1	RES1	0.000	
28	 C44	9.024	-0.829	-4.007	C.2	1	RES1	0.000	
29	 C45	9.670	0.267	-4.688	C.3	1	RES1	0.000	
30	 C46	10.178	1.204	-5.235	C.3	1	RES1	0.000	
31	 C47	10.729	2.312	-5.896	C.2	1	RES1	0.000	
32	 C48	10.972	2.489	-7.230	C.2	1	RES1	0.000	
33	 C49	11.629	4.286	-6.322	C.2	1	RES1	0.000	
34	 C50	12.142	5.553	-5.963	C.2	1	RES1	0.000	
35	 C51	12.164	5.912	-4.660	C.2	1	RES1	0.000	
36	 C52	11.618	4.942	-3.695	C.2	1	RES1	0.000	
37	  F1	12.989	-8.726	1.195	 F	1	RES1	0.000	
38	  F2	14.052	-8.325	-0.628	 F	1	RES1	0.000	
39	  F3	13.367	-6.687	0.631	 F	1	RES1	0.000	
@<TRIPOS>BOND
1 1 4 1
2 2 10 1
3 2 11 1
4 3 10 2
5 4 6 ar
6 4 28 ar
7 5 23 1
8 6 8 ar
9 7 22 1
10 8 9 ar
11 9 10 1
12 11 13 ar
13 13 15 ar
14 14 16 ar
15 15 17 ar
16 17 18 1
17 17 24 ar
18 5 18 1
19 5 19 1
20 19 20 1
21 7 20 1
22 7 21 1
23 22 23 1
24 24 25 1
25 24 26 ar
26 11 26 ar
27 9 27 ar
28 27 28 ar
29 28 29 1
30 29 30 1
31 30 31 1
32 16 31 ar
33 31 32 ar
34 12 32 ar
35 12 33 ar
36 16 33 ar
37 33 34 ar
38 34 35 ar
39 35 36 ar
40 14 36 ar
41 25 37 1
42 25 38 1
43 25 39 1
@<TRIPOS>SUBSTRUCTURE
1	RES1	1	GROUP	1 ****	RES
