# created with PyMOL 2.5.2
@<TRIPOS>MOLECULE
EGFR_4I23_TargetProtein
26 28 1                 
SMALL
USER_CHARGES
@<TRIPOS>ATOM
1	 CL1	-2.730	-52.637	-28.263	Cl	1	RES1	0.000	
2	  C1	3.855	-47.833	-19.808	C.3	1	RES1	0.000	
3	  N1	1.334	-50.430	-19.476	N.pl3	1	RES1	0.000	
4	  O1	2.712	-49.933	-21.305	O.2	1	RES1	0.000	
5	  C2	2.892	-48.625	-19.341	C.3	1	RES1	0.000	
6	  N2	0.351	-52.758	-24.080	N.pl3	1	RES1	0.000	
7	  O2	-0.072	-51.830	-17.673	O.3	1	RES1	0.000	
8	  C3	2.325	-49.704	-20.148	C.2	1	RES1	0.000	
9	  N3	-1.132	-54.471	-23.388	N.2	1	RES1	0.000	
10	  C4	0.554	-51.533	-19.949	C.2	1	RES1	0.000	
11	  N4	-1.750	-54.795	-21.092	N.2	1	RES1	0.000	
12	  C5	0.502	-51.901	-21.296	C.2	1	RES1	0.000	
13	  C6	-0.258	-52.998	-21.734	C.2	1	RES1	0.000	
14	  C7	-0.366	-53.444	-23.057	C.2	1	RES1	0.000	
15	  C8	0.193	-52.780	-25.497	C.2	1	RES1	0.000	
16	  C9	1.333	-52.832	-26.308	C.2	1	RES1	0.000	
17	 C10	1.235	-52.845	-27.718	C.2	1	RES1	0.000	
18	 C11	0.006	-52.811	-28.294	C.2	1	RES1	0.000	
19	 C12	-1.171	-52.723	-27.504	C.2	1	RES1	0.000	
20	 C13	-1.066	-52.709	-26.129	C.2	1	RES1	0.000	
21	 C14	-1.814	-55.109	-22.403	C.2	1	RES1	0.000	
22	 C15	-0.994	-53.735	-20.767	C.2	1	RES1	0.000	
23	 C16	-0.937	-53.333	-19.443	C.2	1	RES1	0.000	
24	 C17	-0.171	-52.265	-19.007	C.2	1	RES1	0.000	
25	 C18	-1.213	-52.037	-16.836	C.3	1	RES1	0.000	
26	  F1	-0.070	-52.819	-29.635	 F	1	RES1	0.000	
@<TRIPOS>BOND
1 1 19 1
2 2 5 1
3 3 8 1
4 3 10 1
5 4 8 2
6 5 8 1
7 6 14 1
8 6 15 1
9 9 14 ar
10 10 12 ar
11 12 13 ar
12 13 14 ar
13 15 16 ar
14 16 17 ar
15 17 18 ar
16 18 19 ar
17 19 20 ar
18 15 20 ar
19 9 21 ar
20 11 21 ar
21 11 22 ar
22 13 22 ar
23 22 23 ar
24 23 24 ar
25 7 24 1
26 10 24 ar
27 7 25 1
28 18 26 1
@<TRIPOS>SUBSTRUCTURE
1	RES1	1	GROUP	1 ****	RES
