# created with PyMOL 2.5.2
@<TRIPOS>MOLECULE
EGFR_4I23_TargetProtein
26 28 1                 
SMALL
USER_CHARGES
@<TRIPOS>ATOM
1	 CL1	-2.716	-52.655	-28.256	Cl	1	RES1	0.000	
2	  C1	3.363	-48.686	-18.268	C.3	1	RES1	0.000	
3	  N1	1.368	-50.439	-19.473	N.pl3	1	RES1	0.000	
4	  O1	1.861	-49.283	-21.436	O.2	1	RES1	0.000	
5	  C2	2.738	-48.437	-19.438	C.3	1	RES1	0.000	
6	  N2	0.358	-52.731	-24.099	N.pl3	1	RES1	0.000	
7	  O2	-0.081	-51.821	-17.658	O.3	1	RES1	0.000	
8	  C3	1.967	-49.445	-20.208	C.2	1	RES1	0.000	
9	  N3	-1.113	-54.515	-23.391	N.2	1	RES1	0.000	
10	  C4	0.555	-51.523	-19.938	C.2	1	RES1	0.000	
11	  N4	-1.787	-54.801	-21.122	N.2	1	RES1	0.000	
12	  C5	0.538	-51.913	-21.276	C.2	1	RES1	0.000	
13	  C6	-0.253	-52.998	-21.707	C.2	1	RES1	0.000	
14	  C7	-0.373	-53.442	-23.086	C.2	1	RES1	0.000	
15	  C8	0.188	-52.757	-25.505	C.2	1	RES1	0.000	
16	  C9	1.329	-52.819	-26.307	C.2	1	RES1	0.000	
17	 C10	1.242	-52.875	-27.693	C.2	1	RES1	0.000	
18	 C11	-0.007	-52.813	-28.306	C.2	1	RES1	0.000	
19	 C12	-1.195	-52.709	-27.527	C.2	1	RES1	0.000	
20	 C13	-1.057	-52.696	-26.125	C.2	1	RES1	0.000	
21	 C14	-1.761	-55.115	-22.407	C.2	1	RES1	0.000	
22	 C15	-1.016	-53.714	-20.746	C.2	1	RES1	0.000	
23	 C16	-0.965	-53.331	-19.424	C.2	1	RES1	0.000	
24	 C17	-0.171	-52.263	-19.019	C.2	1	RES1	0.000	
25	 C18	-1.226	-52.042	-16.847	C.3	1	RES1	0.000	
26	  F1	-0.095	-52.823	-29.637	 F	1	RES1	0.000	
@<TRIPOS>BOND
1 1 19 1
2 2 5 1
3 3 8 1
4 3 10 1
5 4 8 2
6 5 8 1
7 6 14 1
8 6 15 1
9 9 14 ar
10 10 12 ar
11 12 13 ar
12 13 14 ar
13 15 16 ar
14 16 17 ar
15 17 18 ar
16 18 19 ar
17 19 20 ar
18 15 20 ar
19 9 21 ar
20 11 21 ar
21 11 22 ar
22 13 22 ar
23 22 23 ar
24 23 24 ar
25 7 24 1
26 10 24 ar
27 7 25 1
28 18 26 1
@<TRIPOS>SUBSTRUCTURE
1	RES1	1	GROUP	1 ****	RES
