# created with PyMOL 2.5.2
@<TRIPOS>MOLECULE
BRD4_6DL2_TargetProtein
22 25 1                 
SMALL
USER_CHARGES
@<TRIPOS>ATOM
1	  C1	11.442	3.580	-2.277	C.3	1	RES1	0.000	
2	  N1	13.549	3.956	-1.122	N.2	1	RES1	0.000	
3	  O1	12.061	5.320	2.789	O.3	1	RES1	0.000	
4	  S1	9.323	5.486	-0.985	S.2	1	RES1	0.000	
5	  C2	12.251	4.169	-1.188	C.2	1	RES1	0.000	
6	  N2	14.018	4.536	0.022	N.2	1	RES1	0.000	
7	  C3	12.992	5.079	0.639	C.2	1	RES1	0.000	
8	  C4	13.089	5.796	1.911	C.3	1	RES1	0.000	
9	  C5	10.869	6.135	2.711	C.3	1	RES1	0.000	
10	  C6	10.120	6.005	1.412	C.2	1	RES1	0.000	
11	  C7	10.558	5.450	0.223	C.2	1	RES1	0.000	
12	  C8	8.188	6.212	0.059	C.2	1	RES1	0.000	
13	  N8	11.822	4.910	-0.094	N.2	1	RES1	0.000	
14	  C9	6.816	6.476	-0.428	C.3	1	RES1	0.000	
15	 C30	8.730	6.498	1.322	C.2	1	RES1	0.000	
16	 C31	7.960	7.153	2.399	C.3	1	RES1	0.000	
17	 C32	7.604	6.111	3.449	C.2	1	RES1	0.000	
18	 C33	6.870	4.951	3.111	C.2	1	RES1	0.000	
19	 C34	6.547	4.037	4.102	C.2	1	RES1	0.000	
20	 C35	7.011	4.188	5.394	C.2	1	RES1	0.000	
21	 C36	7.776	5.276	5.728	C.2	1	RES1	0.000	
22	 C37	8.077	6.249	4.766	C.2	1	RES1	0.000	
@<TRIPOS>BOND
1 1 5 1
2 2 5 ar
3 2 6 ar
4 3 8 1
5 3 9 1
6 4 11 ar
7 4 12 ar
8 5 13 ar
9 6 7 ar
10 7 8 1
11 7 13 ar
12 9 10 1
13 10 11 ar
14 11 13 1
15 12 14 1
16 10 15 ar
17 12 15 ar
18 15 16 1
19 16 17 1
20 17 18 ar
21 17 22 ar
22 18 19 ar
23 19 20 ar
24 20 21 ar
25 21 22 ar
@<TRIPOS>SUBSTRUCTURE
1	RES1	1	GROUP	1 ****	RES
