# created with PyMOL 2.5.2
@<TRIPOS>MOLECULE
BRD2_4ALH_TargetProtein
35 40 1                 
SMALL
USER_CHARGES
@<TRIPOS>ATOM
1	  C1	-2.927	6.584	25.523	C.3	1	RES1	0.000	
2	  N1	-1.857	8.370	24.180	N.2	1	RES1	0.000	
3	  O1	4.964	6.935	26.762	O.2	1	RES1	0.000	
4	  C2	-2.572	8.050	25.395	C.3	1	RES1	0.000	
5	  N2	-2.552	8.924	23.139	N.2	1	RES1	0.000	
6	  C3	-1.590	9.117	22.232	C.2	1	RES1	0.000	
7	  N3	0.353	7.723	24.896	N.pl3	1	RES1	0.000	
8	  C4	-1.938	9.711	20.864	C.3	1	RES1	0.000	
9	  N4	2.542	6.861	25.357	N.2	1	RES1	0.000	
10	  C5	-3.031	10.779	20.757	C.3	1	RES1	0.000	
11	  C6	-3.286	9.397	20.254	C.3	1	RES1	0.000	
12	  C7	-0.326	8.730	22.651	C.2	1	RES1	0.000	
13	  C8	-0.502	8.255	23.952	C.2	1	RES1	0.000	
14	  O8	-3.035	5.440	20.960	O.3	1	RES1	0.000	
15	  C9	1.403	6.787	24.665	C.2	1	RES1	0.000	
16	  N9	3.471	4.893	24.264	N.2	1	RES1	0.000	
17	  O9	-2.444	2.268	17.803	O.2	1	RES1	0.000	
18	 C10	3.510	5.947	25.126	C.2	1	RES1	0.000	
19	 N10	-3.572	2.050	18.635	N.2	1	RES1	0.000	
20	 C11	4.776	6.058	25.895	C.2	1	RES1	0.000	
21	 N11	2.011	3.941	22.660	N.2	1	RES1	0.000	
22	 C31	2.305	4.866	23.595	C.2	1	RES1	0.000	
23	 C32	1.252	5.742	23.707	C.2	1	RES1	0.000	
24	 C33	0.253	5.304	22.775	C.2	1	RES1	0.000	
25	 C34	-1.024	5.735	22.401	C.2	1	RES1	0.000	
26	 C35	-1.757	5.052	21.408	C.2	1	RES1	0.000	
27	 C36	-3.702	6.470	21.703	C.3	1	RES1	0.000	
28	 C37	-1.199	3.904	20.782	C.2	1	RES1	0.000	
29	 C38	-1.930	3.170	19.767	C.2	1	RES1	0.000	
30	 C39	-1.503	2.962	18.483	C.2	1	RES1	0.000	
31	 C40	-0.276	3.283	17.734	C.3	1	RES1	0.000	
32	 C41	-3.237	2.600	19.803	C.2	1	RES1	0.000	
33	 C42	-4.189	2.548	20.937	C.3	1	RES1	0.000	
34	 C43	0.072	3.474	21.159	C.2	1	RES1	0.000	
35	 C44	0.771	4.177	22.131	C.2	1	RES1	0.000	
@<TRIPOS>BOND
1 1 4 1
2 2 4 1
3 2 5 ar
4 2 13 ar
5 3 20 2
6 5 6 ar
7 6 8 1
8 6 12 ar
9 7 13 1
10 7 15 1
11 8 10 1
12 8 11 1
13 9 15 ar
14 10 11 1
15 12 13 ar
16 9 18 ar
17 16 18 ar
18 18 20 1
19 17 19 ar
20 19 32 ar
21 21 22 ar
22 21 35 ar
23 16 22 ar
24 22 23 ar
25 15 23 ar
26 23 24 ar
27 24 25 ar
28 24 35 ar
29 25 26 ar
30 14 26 1
31 26 28 ar
32 14 27 1
33 28 29 1
34 28 34 ar
35 29 30 ar
36 29 32 ar
37 17 30 ar
38 30 31 1
39 32 33 1
40 34 35 ar
@<TRIPOS>SUBSTRUCTURE
1	RES1	1	GROUP	1 ****	RES
