# created with PyMOL 2.5.2
@<TRIPOS>MOLECULE
EGFR_4I23_TargetProtein
26 28 1                 
SMALL
USER_CHARGES
@<TRIPOS>ATOM
1	 CL1	-2.750	-52.680	-28.155	Cl	1	RES1	0.000	
2	  C1	3.874	-47.875	-19.703	C.3	1	RES1	0.000	
3	  N1	1.335	-50.443	-19.435	N.pl3	1	RES1	0.000	
4	  O1	2.747	-49.926	-21.259	O.2	1	RES1	0.000	
5	  C2	2.895	-48.660	-19.272	C.3	1	RES1	0.000	
6	  N2	0.384	-52.720	-24.079	N.pl3	1	RES1	0.000	
7	  O2	-0.089	-51.855	-17.676	O.3	1	RES1	0.000	
8	  C3	2.321	-49.738	-20.121	C.2	1	RES1	0.000	
9	  N3	-1.123	-54.444	-23.427	N.2	1	RES1	0.000	
10	  C4	0.557	-51.528	-19.945	C.2	1	RES1	0.000	
11	  N4	-1.784	-54.778	-21.153	N.2	1	RES1	0.000	
12	  C5	0.509	-51.884	-21.295	C.2	1	RES1	0.000	
13	  C6	-0.259	-52.967	-21.730	C.2	1	RES1	0.000	
14	  C7	-0.352	-53.415	-23.085	C.2	1	RES1	0.000	
15	  C8	0.270	-52.751	-25.503	C.2	1	RES1	0.000	
16	  C9	1.389	-52.839	-26.352	C.2	1	RES1	0.000	
17	 C10	1.227	-52.871	-27.739	C.2	1	RES1	0.000	
18	 C11	-0.042	-52.825	-28.283	C.2	1	RES1	0.000	
19	 C12	-1.149	-52.750	-27.458	C.2	1	RES1	0.000	
20	 C13	-0.990	-52.691	-26.064	C.2	1	RES1	0.000	
21	 C14	-1.811	-55.084	-22.472	C.2	1	RES1	0.000	
22	 C15	-0.984	-53.722	-20.777	C.2	1	RES1	0.000	
23	 C16	-0.960	-53.350	-19.456	C.2	1	RES1	0.000	
24	 C17	-0.191	-52.276	-19.019	C.2	1	RES1	0.000	
25	 C18	-1.247	-52.053	-16.829	C.3	1	RES1	0.000	
26	  F1	-0.174	-52.873	-29.616	 F	1	RES1	0.000	
@<TRIPOS>BOND
1 1 19 1
2 2 5 1
3 3 8 1
4 3 10 1
5 4 8 2
6 5 8 1
7 6 14 1
8 6 15 1
9 9 14 ar
10 10 12 ar
11 12 13 ar
12 13 14 ar
13 15 16 ar
14 16 17 ar
15 17 18 ar
16 18 19 ar
17 19 20 ar
18 15 20 ar
19 9 21 ar
20 11 21 ar
21 11 22 ar
22 13 22 ar
23 22 23 ar
24 23 24 ar
25 7 24 1
26 10 24 ar
27 7 25 1
28 18 26 1
@<TRIPOS>SUBSTRUCTURE
1	RES1	1	GROUP	1 ****	RES
