# created with PyMOL 2.5.2
@<TRIPOS>MOLECULE
EGFR_4I23_TargetProtein
26 28 1                 
SMALL
USER_CHARGES
@<TRIPOS>ATOM
1	 CL1	-2.756	-52.671	-28.251	Cl	1	RES1	0.000	
2	  C1	3.348	-47.441	-19.865	C.3	1	RES1	0.000	
3	  N1	1.333	-50.440	-19.458	N.pl3	1	RES1	0.000	
4	  O1	1.929	-49.308	-21.409	O.2	1	RES1	0.000	
5	  C2	2.689	-48.475	-19.330	C.3	1	RES1	0.000	
6	  N2	0.351	-52.721	-24.058	N.pl3	1	RES1	0.000	
7	  O2	-0.091	-51.841	-17.680	O.3	1	RES1	0.000	
8	  C3	1.975	-49.439	-20.201	C.2	1	RES1	0.000	
9	  N3	-1.103	-54.469	-23.413	N.2	1	RES1	0.000	
10	  C4	0.584	-51.529	-19.925	C.2	1	RES1	0.000	
11	  N4	-1.766	-54.781	-21.142	N.2	1	RES1	0.000	
12	  C5	0.539	-51.923	-21.309	C.2	1	RES1	0.000	
13	  C6	-0.261	-52.973	-21.707	C.2	1	RES1	0.000	
14	  C7	-0.328	-53.408	-23.073	C.2	1	RES1	0.000	
15	  C8	0.199	-52.744	-25.489	C.2	1	RES1	0.000	
16	  C9	1.327	-52.854	-26.302	C.2	1	RES1	0.000	
17	 C10	1.210	-52.881	-27.699	C.2	1	RES1	0.000	
18	 C11	-0.010	-52.806	-28.291	C.2	1	RES1	0.000	
19	 C12	-1.161	-52.715	-27.518	C.2	1	RES1	0.000	
20	 C13	-1.056	-52.700	-26.129	C.2	1	RES1	0.000	
21	 C14	-1.772	-55.102	-22.409	C.2	1	RES1	0.000	
22	 C15	-1.008	-53.715	-20.793	C.2	1	RES1	0.000	
23	 C16	-0.944	-53.342	-19.426	C.2	1	RES1	0.000	
24	 C17	-0.175	-52.278	-18.995	C.2	1	RES1	0.000	
25	 C18	-1.250	-52.046	-16.855	C.3	1	RES1	0.000	
26	  F1	-0.099	-52.850	-29.623	 F	1	RES1	0.000	
@<TRIPOS>BOND
1 1 19 1
2 2 5 1
3 3 8 1
4 3 10 1
5 4 8 2
6 5 8 1
7 6 14 1
8 6 15 1
9 9 14 ar
10 10 12 ar
11 12 13 ar
12 13 14 ar
13 15 16 ar
14 16 17 ar
15 17 18 ar
16 18 19 ar
17 19 20 ar
18 15 20 ar
19 9 21 ar
20 11 21 ar
21 11 22 ar
22 13 22 ar
23 22 23 ar
24 23 24 ar
25 7 24 1
26 10 24 ar
27 7 25 1
28 18 26 1
@<TRIPOS>SUBSTRUCTURE
1	RES1	1	GROUP	1 ****	RES
