# created with PyMOL 2.5.2
@<TRIPOS>MOLECULE
EGFR_4I23_TargetProtein
26 28 1                 
SMALL
USER_CHARGES
@<TRIPOS>ATOM
1	 CL1	-2.737	-52.566	-28.247	Cl	1	RES1	0.000	
2	  C1	3.780	-47.780	-19.555	C.3	1	RES1	0.000	
3	  N1	1.243	-50.376	-19.376	N.pl3	1	RES1	0.000	
4	  O1	2.626	-49.822	-21.149	O.2	1	RES1	0.000	
5	  C2	2.723	-48.516	-19.164	C.3	1	RES1	0.000	
6	  N2	0.402	-52.734	-24.134	N.pl3	1	RES1	0.000	
7	  O2	-0.077	-51.913	-17.613	O.3	1	RES1	0.000	
8	  C3	2.203	-49.630	-20.027	C.2	1	RES1	0.000	
9	  N3	-1.126	-54.357	-23.426	N.2	1	RES1	0.000	
10	  C4	0.535	-51.490	-19.866	C.2	1	RES1	0.000	
11	  N4	-1.712	-54.776	-21.161	N.2	1	RES1	0.000	
12	  C5	0.459	-51.795	-21.229	C.2	1	RES1	0.000	
13	  C6	-0.212	-52.946	-21.719	C.2	1	RES1	0.000	
14	  C7	-0.323	-53.329	-23.064	C.2	1	RES1	0.000	
15	  C8	0.211	-52.763	-25.524	C.2	1	RES1	0.000	
16	  C9	1.319	-52.933	-26.357	C.2	1	RES1	0.000	
17	 C10	1.194	-53.014	-27.723	C.2	1	RES1	0.000	
18	 C11	-0.037	-52.900	-28.331	C.2	1	RES1	0.000	
19	 C12	-1.176	-52.712	-27.546	C.2	1	RES1	0.000	
20	 C13	-1.046	-52.649	-26.142	C.2	1	RES1	0.000	
21	 C14	-1.775	-55.012	-22.470	C.2	1	RES1	0.000	
22	 C15	-0.955	-53.730	-20.771	C.2	1	RES1	0.000	
23	 C16	-0.891	-53.389	-19.427	C.2	1	RES1	0.000	
24	 C17	-0.173	-52.303	-18.974	C.2	1	RES1	0.000	
25	 C18	-1.245	-52.161	-16.789	C.3	1	RES1	0.000	
26	  F1	-0.113	-52.949	-29.661	 F	1	RES1	0.000	
@<TRIPOS>BOND
1 1 19 1
2 2 5 1
3 3 8 1
4 3 10 1
5 4 8 2
6 5 8 1
7 6 14 1
8 6 15 1
9 9 14 ar
10 10 12 ar
11 12 13 ar
12 13 14 ar
13 15 16 ar
14 16 17 ar
15 17 18 ar
16 18 19 ar
17 19 20 ar
18 15 20 ar
19 9 21 ar
20 11 21 ar
21 11 22 ar
22 13 22 ar
23 22 23 ar
24 23 24 ar
25 7 24 1
26 10 24 ar
27 7 25 1
28 18 26 1
@<TRIPOS>SUBSTRUCTURE
1	RES1	1	GROUP	1 ****	RES
