# created with PyMOL 2.5.2
@<TRIPOS>MOLECULE
EGFR_4I23_TargetProtein
26 28 1                 
SMALL
USER_CHARGES
@<TRIPOS>ATOM
1	 CL1	-2.735	-52.685	-28.257	Cl	1	RES1	0.000	
2	  C1	3.360	-47.446	-19.811	C.3	1	RES1	0.000	
3	  N1	1.358	-50.448	-19.445	N.pl3	1	RES1	0.000	
4	  O1	1.922	-49.315	-21.401	O.2	1	RES1	0.000	
5	  C2	2.690	-48.491	-19.293	C.3	1	RES1	0.000	
6	  N2	0.361	-52.700	-24.090	N.pl3	1	RES1	0.000	
7	  O2	-0.083	-51.851	-17.671	O.3	1	RES1	0.000	
8	  C3	1.970	-49.422	-20.174	C.2	1	RES1	0.000	
9	  N3	-1.093	-54.476	-23.415	N.2	1	RES1	0.000	
10	  C4	0.572	-51.526	-19.930	C.2	1	RES1	0.000	
11	  N4	-1.774	-54.774	-21.137	N.2	1	RES1	0.000	
12	  C5	0.547	-51.908	-21.273	C.2	1	RES1	0.000	
13	  C6	-0.249	-52.973	-21.721	C.2	1	RES1	0.000	
14	  C7	-0.337	-53.411	-23.059	C.2	1	RES1	0.000	
15	  C8	0.175	-52.731	-25.477	C.2	1	RES1	0.000	
16	  C9	1.319	-52.863	-26.293	C.2	1	RES1	0.000	
17	 C10	1.234	-52.890	-27.697	C.2	1	RES1	0.000	
18	 C11	-0.028	-52.820	-28.285	C.2	1	RES1	0.000	
19	 C12	-1.170	-52.751	-27.497	C.2	1	RES1	0.000	
20	 C13	-1.073	-52.680	-26.133	C.2	1	RES1	0.000	
21	 C14	-1.784	-55.101	-22.451	C.2	1	RES1	0.000	
22	 C15	-1.015	-53.711	-20.788	C.2	1	RES1	0.000	
23	 C16	-0.942	-53.349	-19.441	C.2	1	RES1	0.000	
24	 C17	-0.182	-52.265	-18.997	C.2	1	RES1	0.000	
25	 C18	-1.241	-52.050	-16.842	C.3	1	RES1	0.000	
26	  F1	-0.095	-52.835	-29.652	 F	1	RES1	0.000	
@<TRIPOS>BOND
1 1 19 1
2 2 5 1
3 3 8 1
4 3 10 1
5 4 8 2
6 5 8 1
7 6 14 1
8 6 15 1
9 9 14 ar
10 10 12 ar
11 12 13 ar
12 13 14 ar
13 15 16 ar
14 16 17 ar
15 17 18 ar
16 18 19 ar
17 19 20 ar
18 15 20 ar
19 9 21 ar
20 11 21 ar
21 11 22 ar
22 13 22 ar
23 22 23 ar
24 23 24 ar
25 7 24 1
26 10 24 ar
27 7 25 1
28 18 26 1
@<TRIPOS>SUBSTRUCTURE
1	RES1	1	GROUP	1 ****	RES
