# created with PyMOL 2.5.2
@<TRIPOS>MOLECULE
EGFR_4I23_TargetProtein
26 28 1                 
SMALL
USER_CHARGES
@<TRIPOS>ATOM
1	 CL1	-2.727	-52.654	-28.254	Cl	1	RES1	0.000	
2	  C1	3.873	-47.855	-19.799	C.3	1	RES1	0.000	
3	  N1	1.330	-50.420	-19.492	N.pl3	1	RES1	0.000	
4	  O1	2.710	-49.953	-21.311	O.2	1	RES1	0.000	
5	  C2	2.883	-48.624	-19.343	C.3	1	RES1	0.000	
6	  N2	0.335	-52.757	-24.063	N.pl3	1	RES1	0.000	
7	  O2	-0.070	-51.823	-17.677	O.3	1	RES1	0.000	
8	  C3	2.316	-49.718	-20.148	C.2	1	RES1	0.000	
9	  N3	-1.152	-54.490	-23.381	N.2	1	RES1	0.000	
10	  C4	0.575	-51.547	-19.949	C.2	1	RES1	0.000	
11	  N4	-1.762	-54.796	-21.111	N.2	1	RES1	0.000	
12	  C5	0.491	-51.905	-21.295	C.2	1	RES1	0.000	
13	  C6	-0.254	-52.990	-21.727	C.2	1	RES1	0.000	
14	  C7	-0.355	-53.433	-23.042	C.2	1	RES1	0.000	
15	  C8	0.211	-52.772	-25.489	C.2	1	RES1	0.000	
16	  C9	1.328	-52.835	-26.320	C.2	1	RES1	0.000	
17	 C10	1.249	-52.858	-27.706	C.2	1	RES1	0.000	
18	 C11	-0.015	-52.802	-28.299	C.2	1	RES1	0.000	
19	 C12	-1.164	-52.718	-27.511	C.2	1	RES1	0.000	
20	 C13	-1.054	-52.717	-26.118	C.2	1	RES1	0.000	
21	 C14	-1.811	-55.107	-22.408	C.2	1	RES1	0.000	
22	 C15	-0.982	-53.729	-20.774	C.2	1	RES1	0.000	
23	 C16	-0.944	-53.357	-19.430	C.2	1	RES1	0.000	
24	 C17	-0.166	-52.272	-19.009	C.2	1	RES1	0.000	
25	 C18	-1.220	-52.021	-16.854	C.3	1	RES1	0.000	
26	  F1	-0.079	-52.797	-29.641	 F	1	RES1	0.000	
@<TRIPOS>BOND
1 1 19 1
2 2 5 1
3 3 8 1
4 3 10 1
5 4 8 2
6 5 8 1
7 6 14 1
8 6 15 1
9 9 14 ar
10 10 12 ar
11 12 13 ar
12 13 14 ar
13 15 16 ar
14 16 17 ar
15 17 18 ar
16 18 19 ar
17 19 20 ar
18 15 20 ar
19 9 21 ar
20 11 21 ar
21 11 22 ar
22 13 22 ar
23 22 23 ar
24 23 24 ar
25 7 24 1
26 10 24 ar
27 7 25 1
28 18 26 1
@<TRIPOS>SUBSTRUCTURE
1	RES1	1	GROUP	1 ****	RES
