# created with PyMOL 2.5.2
@<TRIPOS>MOLECULE
EGFR_4I23_TargetProtein
26 28 1                 
SMALL
USER_CHARGES
@<TRIPOS>ATOM
1	 CL1	-2.743	-52.667	-28.160	Cl	1	RES1	0.000	
2	  C1	3.855	-47.844	-19.765	C.3	1	RES1	0.000	
3	  N1	1.329	-50.447	-19.459	N.pl3	1	RES1	0.000	
4	  O1	2.722	-49.940	-21.269	O.2	1	RES1	0.000	
5	  C2	2.865	-48.638	-19.298	C.3	1	RES1	0.000	
6	  N2	0.382	-52.728	-24.083	N.pl3	1	RES1	0.000	
7	  O2	-0.102	-51.850	-17.671	O.3	1	RES1	0.000	
8	  C3	2.289	-49.721	-20.147	C.2	1	RES1	0.000	
9	  N3	-1.136	-54.457	-23.422	N.2	1	RES1	0.000	
10	  C4	0.549	-51.515	-19.954	C.2	1	RES1	0.000	
11	  N4	-1.786	-54.791	-21.136	N.2	1	RES1	0.000	
12	  C5	0.502	-51.888	-21.279	C.2	1	RES1	0.000	
13	  C6	-0.247	-52.973	-21.740	C.2	1	RES1	0.000	
14	  C7	-0.342	-53.416	-23.085	C.2	1	RES1	0.000	
15	  C8	0.269	-52.765	-25.499	C.2	1	RES1	0.000	
16	  C9	1.385	-52.849	-26.349	C.2	1	RES1	0.000	
17	 C10	1.247	-52.866	-27.736	C.2	1	RES1	0.000	
18	 C11	-0.045	-52.807	-28.281	C.2	1	RES1	0.000	
19	 C12	-1.149	-52.726	-27.462	C.2	1	RES1	0.000	
20	 C13	-0.991	-52.723	-26.084	C.2	1	RES1	0.000	
21	 C14	-1.803	-55.082	-22.418	C.2	1	RES1	0.000	
22	 C15	-0.999	-53.721	-20.800	C.2	1	RES1	0.000	
23	 C16	-0.973	-53.357	-19.438	C.2	1	RES1	0.000	
24	 C17	-0.182	-52.261	-19.015	C.2	1	RES1	0.000	
25	 C18	-1.226	-52.056	-16.838	C.3	1	RES1	0.000	
26	  F1	-0.177	-52.852	-29.642	 F	1	RES1	0.000	
@<TRIPOS>BOND
1 1 19 1
2 2 5 1
3 3 8 1
4 3 10 1
5 4 8 2
6 5 8 1
7 6 14 1
8 6 15 1
9 9 14 ar
10 10 12 ar
11 12 13 ar
12 13 14 ar
13 15 16 ar
14 16 17 ar
15 17 18 ar
16 18 19 ar
17 19 20 ar
18 15 20 ar
19 9 21 ar
20 11 21 ar
21 11 22 ar
22 13 22 ar
23 22 23 ar
24 23 24 ar
25 7 24 1
26 10 24 ar
27 7 25 1
28 18 26 1
@<TRIPOS>SUBSTRUCTURE
1	RES1	1	GROUP	1 ****	RES
