# created with PyMOL 2.5.2
@<TRIPOS>MOLECULE
EGFR_4I23_TargetProtein
26 28 1                 
SMALL
USER_CHARGES
@<TRIPOS>ATOM
1	 CL1	-2.733	-52.671	-28.263	Cl	1	RES1	0.000	
2	  C1	3.366	-47.439	-19.821	C.3	1	RES1	0.000	
3	  N1	1.348	-50.463	-19.422	N.pl3	1	RES1	0.000	
4	  O1	1.958	-49.317	-21.375	O.2	1	RES1	0.000	
5	  C2	2.701	-48.503	-19.299	C.3	1	RES1	0.000	
6	  N2	0.372	-52.690	-24.078	N.pl3	1	RES1	0.000	
7	  O2	-0.072	-51.847	-17.667	O.3	1	RES1	0.000	
8	  C3	1.961	-49.479	-20.178	C.2	1	RES1	0.000	
9	  N3	-1.093	-54.466	-23.424	N.2	1	RES1	0.000	
10	  C4	0.578	-51.531	-19.935	C.2	1	RES1	0.000	
11	  N4	-1.777	-54.777	-21.148	N.2	1	RES1	0.000	
12	  C5	0.542	-51.929	-21.284	C.2	1	RES1	0.000	
13	  C6	-0.240	-52.978	-21.728	C.2	1	RES1	0.000	
14	  C7	-0.319	-53.398	-23.064	C.2	1	RES1	0.000	
15	  C8	0.171	-52.726	-25.485	C.2	1	RES1	0.000	
16	  C9	1.330	-52.828	-26.322	C.2	1	RES1	0.000	
17	 C10	1.216	-52.888	-27.701	C.2	1	RES1	0.000	
18	 C11	-0.028	-52.833	-28.278	C.2	1	RES1	0.000	
19	 C12	-1.170	-52.752	-27.514	C.2	1	RES1	0.000	
20	 C13	-1.062	-52.678	-26.107	C.2	1	RES1	0.000	
21	 C14	-1.774	-55.088	-22.442	C.2	1	RES1	0.000	
22	 C15	-1.009	-53.713	-20.771	C.2	1	RES1	0.000	
23	 C16	-0.964	-53.368	-19.452	C.2	1	RES1	0.000	
24	 C17	-0.183	-52.256	-19.008	C.2	1	RES1	0.000	
25	 C18	-1.256	-52.040	-16.837	C.3	1	RES1	0.000	
26	  F1	-0.111	-52.877	-29.621	 F	1	RES1	0.000	
@<TRIPOS>BOND
1 1 19 1
2 2 5 1
3 3 8 1
4 3 10 1
5 4 8 2
6 5 8 1
7 6 14 1
8 6 15 1
9 9 14 ar
10 10 12 ar
11 12 13 ar
12 13 14 ar
13 15 16 ar
14 16 17 ar
15 17 18 ar
16 18 19 ar
17 19 20 ar
18 15 20 ar
19 9 21 ar
20 11 21 ar
21 11 22 ar
22 13 22 ar
23 22 23 ar
24 23 24 ar
25 7 24 1
26 10 24 ar
27 7 25 1
28 18 26 1
@<TRIPOS>SUBSTRUCTURE
1	RES1	1	GROUP	1 ****	RES
