# created with PyMOL 2.5.2
@<TRIPOS>MOLECULE
EGFR_4I23_TargetProtein
26 28 1                 
SMALL
USER_CHARGES
@<TRIPOS>ATOM
1	 CL1	-2.707	-52.645	-28.286	Cl	1	RES1	0.000	
2	  C1	3.883	-47.875	-19.766	C.3	1	RES1	0.000	
3	  N1	1.353	-50.418	-19.484	N.pl3	1	RES1	0.000	
4	  O1	2.732	-49.946	-21.277	O.2	1	RES1	0.000	
5	  C2	2.885	-48.616	-19.318	C.3	1	RES1	0.000	
6	  N2	0.347	-52.743	-24.098	N.pl3	1	RES1	0.000	
7	  O2	-0.072	-51.838	-17.672	O.3	1	RES1	0.000	
8	  C3	2.325	-49.736	-20.150	C.2	1	RES1	0.000	
9	  N3	-1.154	-54.457	-23.397	N.2	1	RES1	0.000	
10	  C4	0.565	-51.533	-19.939	C.2	1	RES1	0.000	
11	  N4	-1.745	-54.802	-21.125	N.2	1	RES1	0.000	
12	  C5	0.496	-51.885	-21.281	C.2	1	RES1	0.000	
13	  C6	-0.264	-52.968	-21.710	C.2	1	RES1	0.000	
14	  C7	-0.363	-53.420	-23.054	C.2	1	RES1	0.000	
15	  C8	0.180	-52.769	-25.498	C.2	1	RES1	0.000	
16	  C9	1.330	-52.821	-26.309	C.2	1	RES1	0.000	
17	 C10	1.241	-52.877	-27.693	C.2	1	RES1	0.000	
18	 C11	-0.017	-52.808	-28.298	C.2	1	RES1	0.000	
19	 C12	-1.152	-52.732	-27.501	C.2	1	RES1	0.000	
20	 C13	-1.062	-52.703	-26.122	C.2	1	RES1	0.000	
21	 C14	-1.807	-55.106	-22.414	C.2	1	RES1	0.000	
22	 C15	-1.003	-53.732	-20.767	C.2	1	RES1	0.000	
23	 C16	-0.931	-53.372	-19.412	C.2	1	RES1	0.000	
24	 C17	-0.164	-52.276	-19.011	C.2	1	RES1	0.000	
25	 C18	-1.219	-52.046	-16.833	C.3	1	RES1	0.000	
26	  F1	-0.086	-52.845	-29.648	 F	1	RES1	0.000	
@<TRIPOS>BOND
1 1 19 1
2 2 5 1
3 3 8 1
4 3 10 1
5 4 8 2
6 5 8 1
7 6 14 1
8 6 15 1
9 9 14 ar
10 10 12 ar
11 12 13 ar
12 13 14 ar
13 15 16 ar
14 16 17 ar
15 17 18 ar
16 18 19 ar
17 19 20 ar
18 15 20 ar
19 9 21 ar
20 11 21 ar
21 11 22 ar
22 13 22 ar
23 22 23 ar
24 23 24 ar
25 7 24 1
26 10 24 ar
27 7 25 1
28 18 26 1
@<TRIPOS>SUBSTRUCTURE
1	RES1	1	GROUP	1 ****	RES
