# created with PyMOL 2.5.2
@<TRIPOS>MOLECULE
BRD4_6DL2_TargetProtein
22 25 1                 
SMALL
USER_CHARGES
@<TRIPOS>ATOM
1	  C1	11.445	3.511	-2.239	C.3	1	RES1	0.000	
2	  N1	13.577	3.995	-1.099	N.2	1	RES1	0.000	
3	  O1	12.064	5.332	2.755	O.3	1	RES1	0.000	
4	  S1	9.318	5.458	-0.987	S.2	1	RES1	0.000	
5	  C2	12.250	4.145	-1.181	C.2	1	RES1	0.000	
6	  N2	14.003	4.598	0.006	N.2	1	RES1	0.000	
7	  C3	12.995	5.127	0.626	C.2	1	RES1	0.000	
8	  C4	13.082	5.876	1.895	C.3	1	RES1	0.000	
9	  C5	10.861	6.061	2.728	C.3	1	RES1	0.000	
10	  C6	10.113	5.971	1.441	C.2	1	RES1	0.000	
11	  C7	10.539	5.421	0.254	C.2	1	RES1	0.000	
12	  N7	11.810	4.914	-0.094	N.2	1	RES1	0.000	
13	  C8	8.187	6.212	0.062	C.2	1	RES1	0.000	
14	  C9	6.856	6.483	-0.453	C.3	1	RES1	0.000	
15	 C32	8.741	6.499	1.317	C.2	1	RES1	0.000	
16	 C33	7.998	7.178	2.425	C.3	1	RES1	0.000	
17	 C34	7.659	6.102	3.439	C.2	1	RES1	0.000	
18	 C35	6.968	4.922	3.084	C.2	1	RES1	0.000	
19	 C36	6.628	3.986	4.039	C.2	1	RES1	0.000	
20	 C37	6.972	4.162	5.374	C.2	1	RES1	0.000	
21	 C38	7.625	5.319	5.749	C.2	1	RES1	0.000	
22	 C39	7.983	6.302	4.802	C.2	1	RES1	0.000	
@<TRIPOS>BOND
1 1 5 1
2 2 5 ar
3 2 6 ar
4 3 8 1
5 3 9 1
6 4 11 ar
7 4 13 ar
8 5 12 ar
9 6 7 ar
10 7 8 1
11 7 12 ar
12 9 10 1
13 10 11 ar
14 11 12 1
15 13 14 1
16 10 15 ar
17 13 15 ar
18 15 16 1
19 16 17 1
20 17 18 ar
21 17 22 ar
22 18 19 ar
23 19 20 ar
24 20 21 ar
25 21 22 ar
@<TRIPOS>SUBSTRUCTURE
1	RES1	1	GROUP	1 ****	RES
