# created with PyMOL 2.5.2
@<TRIPOS>MOLECULE
PARP14_7L9Y_TargetProtein
26 29 1                 
SMALL
USER_CHARGES
@<TRIPOS>ATOM
1	  N1	-21.194	-15.003	19.387	N.3	1	RES1	0.000	
2	  S1	-22.757	-15.313	15.024	S.3	1	RES1	0.000	
3	  N2	-22.956	-14.126	12.086	N.2	1	RES1	0.000	
4	  O2	-24.895	-10.544	12.306	O.2	1	RES1	0.000	
5	  C3	-20.416	-14.344	18.342	C.3	1	RES1	0.000	
6	  N3	-24.689	-14.939	7.582	N.pl3	1	RES1	0.000	
7	  C4	-21.241	-14.138	17.088	C.3	1	RES1	0.000	
8	  N4	-23.540	-12.134	13.238	N.2	1	RES1	0.000	
9	  C5	-21.799	-15.486	16.575	C.3	1	RES1	0.000	
10	  C6	-22.068	-13.761	14.351	C.3	1	RES1	0.000	
11	  C7	-22.906	-13.357	13.111	C.2	1	RES1	0.000	
12	  C8	-23.766	-13.695	10.980	C.2	1	RES1	0.000	
13	  C9	-23.810	-14.516	9.864	C.2	1	RES1	0.000	
14	 C10	-24.592	-14.140	8.752	C.2	1	RES1	0.000	
15	 C11	-24.044	-16.223	7.249	C.3	1	RES1	0.000	
16	 C12	-24.854	-17.455	7.704	C.3	1	RES1	0.000	
17	 C13	-23.835	-18.367	8.359	C.3	1	RES1	0.000	
18	 C14	-22.477	-17.890	7.873	C.3	1	RES1	0.000	
19	 C15	-22.631	-16.386	7.783	C.3	1	RES1	0.000	
20	 C16	-25.265	-12.922	8.781	C.2	1	RES1	0.000	
21	 C17	-25.194	-12.083	9.896	C.2	1	RES1	0.000	
22	 C18	-24.448	-12.463	11.022	C.2	1	RES1	0.000	
23	 C19	-24.341	-11.625	12.216	C.2	1	RES1	0.000	
24	 C20	-22.555	-16.206	17.699	C.3	1	RES1	0.000	
25	 C21	-21.687	-16.333	18.947	C.3	1	RES1	0.000	
26	  F1	-25.875	-10.925	9.875	 F	1	RES1	0.000	
@<TRIPOS>BOND
1 1 5 1
2 1 25 1
3 2 9 1
4 2 10 1
5 3 11 ar
6 3 12 ar
7 5 7 1
8 7 9 1
9 8 11 ar
10 10 11 1
11 12 13 ar
12 6 14 1
13 13 14 ar
14 14 20 ar
15 6 15 1
16 15 16 1
17 15 19 1
18 16 17 1
19 17 18 1
20 18 19 1
21 20 21 ar
22 21 22 ar
23 12 22 ar
24 22 23 ar
25 4 23 2
26 8 23 ar
27 9 24 1
28 24 25 1
29 21 26 1
@<TRIPOS>SUBSTRUCTURE
1	RES1	1	GROUP	1 ****	RES
