# created with PyMOL 2.5.2
@<TRIPOS>MOLECULE
ALK_6MX8_TargetProtein
39 43 1                 
SMALL
USER_CHARGES
@<TRIPOS>ATOM
1	 CL1	5.086	14.429	10.868	Cl	1	RES1	0.000	
2	  P1	8.893	16.635	9.557	P.3	1	RES1	0.000	
3	  C1	-1.074	21.090	7.003	C.3	1	RES1	0.000	
4	  N1	3.249	23.276	5.160	N.pl3	1	RES1	0.000	
5	  O1	0.033	20.488	7.717	O.3	1	RES1	0.000	
6	  C2	1.303	20.808	7.281	C.2	1	RES1	0.000	
7	  N2	3.347	26.781	2.856	N.3	1	RES1	0.000	
8	  C3	1.633	21.888	6.424	C.2	1	RES1	0.000	
9	  N3	2.518	29.573	2.886	N.3	1	RES1	0.000	
10	  C4	2.941	22.167	6.044	C.2	1	RES1	0.000	
11	  C5	3.360	24.629	5.680	C.3	1	RES1	0.000	
12	  C6	4.323	25.458	4.850	C.3	1	RES1	0.000	
13	  C7	3.940	25.485	3.352	C.3	1	RES1	0.000	
14	  N7	1.988	18.887	8.628	N.pl3	1	RES1	0.000	
15	  C8	4.341	27.878	2.884	C.3	1	RES1	0.000	
16	  N8	2.174	17.055	10.215	N.2	1	RES1	0.000	
17	  O8	10.300	16.067	9.379	O.3	1	RES1	0.000	
18	  C9	3.775	29.170	2.297	C.3	1	RES1	0.000	
19	  N9	5.971	16.347	8.643	N.pl3	1	RES1	0.000	
20	 N10	3.938	17.605	8.702	N.2	1	RES1	0.000	
21	 C28	1.543	28.481	2.847	C.3	1	RES1	0.000	
22	 C29	2.081	27.178	3.489	C.3	1	RES1	0.000	
23	 C30	3.038	24.322	2.964	C.3	1	RES1	0.000	
24	 C31	3.398	23.049	3.726	C.3	1	RES1	0.000	
25	 C32	3.927	21.330	6.540	C.2	1	RES1	0.000	
26	 C33	3.652	20.257	7.379	C.2	1	RES1	0.000	
27	 C34	2.348	19.956	7.774	C.2	1	RES1	0.000	
28	 C35	2.686	17.821	9.182	C.2	1	RES1	0.000	
29	 C36	2.924	16.065	10.667	C.2	1	RES1	0.000	
30	 C37	4.175	15.780	10.219	C.2	1	RES1	0.000	
31	 C38	4.676	16.590	9.164	C.2	1	RES1	0.000	
32	 C39	6.796	17.135	7.786	C.2	1	RES1	0.000	
33	 C40	6.305	17.719	6.587	C.2	1	RES1	0.000	
34	 C41	7.103	18.490	5.774	C.2	1	RES1	0.000	
35	 C42	8.459	18.715	6.120	C.2	1	RES1	0.000	
36	 C43	8.954	18.130	7.268	C.2	1	RES1	0.000	
37	 C44	8.154	17.329	8.097	C.2	1	RES1	0.000	
38	 C45	8.915	17.859	10.889	C.3	1	RES1	0.000	
39	 C46	7.836	15.344	10.236	C.3	1	RES1	0.000	
@<TRIPOS>BOND
1 1 30 1
2 2 17 1
3 2 37 1
4 2 38 1
5 2 39 1
6 4 10 1
7 4 11 1
8 4 24 1
9 3 5 1
10 5 6 1
11 6 8 ar
12 6 27 ar
13 7 13 1
14 7 15 1
15 7 22 1
16 8 10 ar
17 9 18 1
18 11 12 1
19 12 13 1
20 15 18 1
21 20 28 ar
22 20 31 ar
23 9 21 1
24 21 22 1
25 13 23 1
26 23 24 1
27 10 25 ar
28 25 26 ar
29 26 27 ar
30 14 27 1
31 14 28 1
32 16 28 ar
33 16 29 ar
34 29 30 ar
35 30 31 ar
36 19 31 1
37 19 32 1
38 32 33 ar
39 32 37 ar
40 33 34 ar
41 34 35 ar
42 35 36 ar
43 36 37 ar
@<TRIPOS>SUBSTRUCTURE
1	RES1	1	GROUP	1 ****	RES
