# created with PyMOL 2.5.2
@<TRIPOS>MOLECULE
ALK_6MX8_TargetProtein
39 43 1                 
SMALL
USER_CHARGES
@<TRIPOS>ATOM
1	 CL1	4.852	14.197	10.658	Cl	1	RES1	0.000	
2	  P1	8.966	16.542	9.742	P.3	1	RES1	0.000	
3	  C1	-1.032	21.015	6.824	C.3	1	RES1	0.000	
4	  N1	3.237	23.509	5.417	N.pl3	1	RES1	0.000	
5	  O1	0.030	20.415	7.579	O.3	1	RES1	0.000	
6	  C2	1.349	20.851	7.265	C.2	1	RES1	0.000	
7	  N2	3.516	27.168	3.298	N.3	1	RES1	0.000	
8	  C3	1.618	21.974	6.493	C.2	1	RES1	0.000	
9	  N3	1.951	29.111	1.753	N.3	1	RES1	0.000	
10	  C4	2.933	22.374	6.217	C.2	1	RES1	0.000	
11	  C5	3.154	24.888	5.973	C.3	1	RES1	0.000	
12	  C6	4.166	25.809	5.314	C.3	1	RES1	0.000	
13	  C7	4.037	25.849	3.777	C.3	1	RES1	0.000	
14	  N7	2.030	18.925	8.576	N.pl3	1	RES1	0.000	
15	  C8	3.806	27.425	1.878	C.3	1	RES1	0.000	
16	  N8	2.122	17.004	9.913	N.2	1	RES1	0.000	
17	  C9	3.381	28.865	1.491	C.3	1	RES1	0.000	
18	  N9	6.003	16.193	8.618	N.pl3	1	RES1	0.000	
19	  O9	10.400	16.039	9.598	O.3	1	RES1	0.000	
20	 N10	4.037	17.572	8.603	N.2	1	RES1	0.000	
21	 C30	1.643	28.828	3.168	C.3	1	RES1	0.000	
22	 C31	2.059	27.428	3.594	C.3	1	RES1	0.000	
23	 C32	3.301	24.629	3.212	C.3	1	RES1	0.000	
24	 C33	3.647	23.370	4.009	C.3	1	RES1	0.000	
25	 C34	3.993	21.588	6.749	C.2	1	RES1	0.000	
26	 C35	3.673	20.452	7.528	C.2	1	RES1	0.000	
27	 C36	2.377	20.073	7.825	C.2	1	RES1	0.000	
28	 C37	2.792	17.836	9.041	C.2	1	RES1	0.000	
29	 C38	2.779	15.936	10.363	C.2	1	RES1	0.000	
30	 C39	4.067	15.611	9.982	C.2	1	RES1	0.000	
31	 C40	4.702	16.490	9.074	C.2	1	RES1	0.000	
32	 C41	6.893	16.947	7.822	C.2	1	RES1	0.000	
33	 C42	6.458	17.531	6.641	C.2	1	RES1	0.000	
34	 C43	7.291	18.303	5.845	C.2	1	RES1	0.000	
35	 C44	8.608	18.520	6.235	C.2	1	RES1	0.000	
36	 C45	9.084	17.931	7.398	C.2	1	RES1	0.000	
37	 C46	8.240	17.153	8.211	C.2	1	RES1	0.000	
38	 C47	8.902	17.770	11.080	C.3	1	RES1	0.000	
39	 C48	7.943	15.145	10.375	C.3	1	RES1	0.000	
@<TRIPOS>BOND
1 1 30 1
2 2 19 1
3 2 37 1
4 2 38 1
5 2 39 1
6 4 10 1
7 4 11 1
8 4 24 1
9 3 5 1
10 5 6 1
11 6 8 ar
12 6 27 ar
13 7 13 1
14 7 15 1
15 7 22 1
16 8 10 ar
17 9 17 1
18 9 21 1
19 11 12 1
20 12 13 1
21 15 17 1
22 20 28 ar
23 20 31 ar
24 21 22 1
25 13 23 1
26 23 24 1
27 10 25 ar
28 25 26 ar
29 26 27 ar
30 14 27 1
31 14 28 1
32 16 28 ar
33 16 29 ar
34 29 30 ar
35 30 31 ar
36 18 31 1
37 18 32 1
38 32 33 ar
39 32 37 ar
40 33 34 ar
41 34 35 ar
42 35 36 ar
43 36 37 ar
@<TRIPOS>SUBSTRUCTURE
1	RES1	1	GROUP	1 ****	RES
