# created with PyMOL 2.5.2
@<TRIPOS>MOLECULE
ALK_6MX8_TargetProtein
39 43 1                 
SMALL
USER_CHARGES
@<TRIPOS>ATOM
1	 CL1	5.753	14.757	10.609	Cl	1	RES1	0.000	
2	  P1	9.077	17.312	8.999	P.3	1	RES1	0.000	
3	  C1	-1.896	20.376	7.264	C.3	1	RES1	0.000	
4	  N1	2.021	23.219	5.524	N.pl3	1	RES1	0.000	
5	  O1	-0.705	19.860	7.920	O.3	1	RES1	0.000	
6	  C2	0.534	20.382	7.536	C.2	1	RES1	0.000	
7	  N2	4.404	26.335	3.879	N.3	1	RES1	0.000	
8	  C3	0.663	21.545	6.755	C.2	1	RES1	0.000	
9	  N3	4.840	28.431	1.824	N.3	1	RES1	0.000	
10	  C4	1.888	22.052	6.334	C.2	1	RES1	0.000	
11	  C5	1.861	24.554	6.060	C.3	1	RES1	0.000	
12	  C6	3.119	25.390	5.792	C.3	1	RES1	0.000	
13	  C7	3.780	25.104	4.422	C.3	1	RES1	0.000	
14	  N7	1.676	18.528	8.776	N.pl3	1	RES1	0.000	
15	  C8	5.132	26.070	2.624	C.3	1	RES1	0.000	
16	  N8	2.370	16.827	10.195	N.2	1	RES1	0.000	
17	  C9	5.814	27.350	2.058	C.3	1	RES1	0.000	
18	  N9	6.119	16.783	8.349	N.pl3	1	RES1	0.000	
19	 N10	3.890	17.674	8.586	N.2	1	RES1	0.000	
20	 O10	8.668	15.913	9.384	O.3	1	RES1	0.000	
21	 C32	4.129	28.706	3.080	C.3	1	RES1	0.000	
22	 C33	3.459	27.451	3.667	C.3	1	RES1	0.000	
23	 C34	2.767	24.395	3.488	C.3	1	RES1	0.000	
24	 C35	2.264	23.084	4.088	C.3	1	RES1	0.000	
25	 C36	3.031	21.274	6.708	C.2	1	RES1	0.000	
26	 C37	2.906	20.138	7.483	C.2	1	RES1	0.000	
27	 C38	1.662	19.640	7.914	C.2	1	RES1	0.000	
28	 C39	2.673	17.655	9.203	C.2	1	RES1	0.000	
29	 C40	3.340	15.960	10.587	C.2	1	RES1	0.000	
30	 C41	4.594	15.896	10.024	C.2	1	RES1	0.000	
31	 C42	4.858	16.808	8.996	C.2	1	RES1	0.000	
32	 C43	6.757	17.755	7.504	C.2	1	RES1	0.000	
33	 C44	6.085	18.379	6.467	C.2	1	RES1	0.000	
34	 C45	6.689	19.302	5.645	C.2	1	RES1	0.000	
35	 C46	8.040	19.623	5.863	C.2	1	RES1	0.000	
36	 C47	8.723	19.004	6.877	C.2	1	RES1	0.000	
37	 C48	8.112	18.054	7.707	C.2	1	RES1	0.000	
38	 C49	9.074	18.369	10.442	C.3	1	RES1	0.000	
39	 C50	10.830	17.305	8.504	C.3	1	RES1	0.000	
@<TRIPOS>BOND
1 1 30 1
2 2 20 1
3 2 37 1
4 2 38 1
5 2 39 1
6 4 10 1
7 4 11 1
8 4 24 1
9 3 5 1
10 5 6 1
11 6 8 ar
12 6 27 ar
13 7 13 1
14 7 15 1
15 7 22 1
16 8 10 ar
17 9 17 1
18 9 21 1
19 11 12 1
20 12 13 1
21 15 17 1
22 19 28 ar
23 19 31 ar
24 21 22 1
25 13 23 1
26 23 24 1
27 10 25 ar
28 25 26 ar
29 26 27 ar
30 14 27 1
31 14 28 1
32 16 28 ar
33 16 29 ar
34 29 30 ar
35 30 31 ar
36 18 31 1
37 18 32 1
38 32 33 ar
39 32 37 ar
40 33 34 ar
41 34 35 ar
42 35 36 ar
43 36 37 ar
@<TRIPOS>SUBSTRUCTURE
1	RES1	1	GROUP	1 ****	RES
