# created with PyMOL 2.5.2
@<TRIPOS>MOLECULE
ALK_6MX8_TargetProtein
39 43 1                 
SMALL
USER_CHARGES
@<TRIPOS>ATOM
1	 CL1	5.580	14.574	10.661	Cl	1	RES1	0.000	
2	  P1	9.047	16.986	9.203	P.3	1	RES1	0.000	
3	  C1	-1.550	20.465	7.390	C.3	1	RES1	0.000	
4	  N1	2.297	23.243	5.342	N.pl3	1	RES1	0.000	
5	  O1	-0.362	20.013	8.009	O.3	1	RES1	0.000	
6	  C2	0.847	20.521	7.512	C.2	1	RES1	0.000	
7	  N2	3.359	26.596	3.027	N.3	1	RES1	0.000	
8	  C3	0.956	21.620	6.647	C.2	1	RES1	0.000	
9	  N3	5.369	28.717	2.849	N.3	1	RES1	0.000	
10	  C4	2.192	22.096	6.187	C.2	1	RES1	0.000	
11	  C5	1.822	23.209	3.976	C.3	1	RES1	0.000	
12	  C6	2.569	24.225	3.119	C.3	1	RES1	0.000	
13	  C7	2.365	25.667	3.646	C.3	1	RES1	0.000	
14	  N7	1.887	18.686	8.767	N.pl3	1	RES1	0.000	
15	  C8	4.771	26.370	3.433	C.3	1	RES1	0.000	
16	  N8	2.356	16.862	10.232	N.2	1	RES1	0.000	
17	  C9	5.708	27.324	2.687	C.3	1	RES1	0.000	
18	  N9	6.105	16.613	8.422	N.pl3	1	RES1	0.000	
19	 N10	3.944	17.634	8.667	N.2	1	RES1	0.000	
20	 O11	8.580	15.610	9.606	O.3	1	RES1	0.000	
21	 C34	3.981	28.950	2.458	C.3	1	RES1	0.000	
22	 C35	2.960	28.022	3.172	C.3	1	RES1	0.000	
23	 C36	2.238	25.711	5.189	C.3	1	RES1	0.000	
24	 C37	2.889	24.515	5.862	C.3	1	RES1	0.000	
25	 C38	3.334	21.390	6.588	C.2	1	RES1	0.000	
26	 C39	3.244	20.268	7.432	C.2	1	RES1	0.000	
27	 C40	2.013	19.795	7.920	C.2	1	RES1	0.000	
28	 C41	2.736	17.709	9.238	C.2	1	RES1	0.000	
29	 C42	3.251	15.944	10.625	C.2	1	RES1	0.000	
30	 C43	4.532	15.818	10.077	C.2	1	RES1	0.000	
31	 C44	4.845	16.700	9.054	C.2	1	RES1	0.000	
32	 C45	6.828	17.525	7.602	C.2	1	RES1	0.000	
33	 C46	6.219	18.160	6.508	C.2	1	RES1	0.000	
34	 C47	6.952	19.028	5.684	C.2	1	RES1	0.000	
35	 C48	8.267	19.262	5.956	C.2	1	RES1	0.000	
36	 C49	8.872	18.632	7.036	C.2	1	RES1	0.000	
37	 C50	8.190	17.770	7.852	C.2	1	RES1	0.000	
38	 C51	10.829	16.922	8.831	C.3	1	RES1	0.000	
39	 C52	8.984	18.111	10.669	C.3	1	RES1	0.000	
@<TRIPOS>BOND
1 1 30 1
2 2 20 1
3 2 37 1
4 2 38 1
5 2 39 1
6 4 10 1
7 4 11 1
8 4 24 1
9 3 5 1
10 5 6 1
11 6 8 ar
12 6 27 ar
13 7 13 1
14 7 15 1
15 7 22 1
16 8 10 ar
17 9 17 1
18 9 21 1
19 11 12 1
20 12 13 1
21 15 17 1
22 19 28 ar
23 19 31 ar
24 21 22 1
25 13 23 1
26 23 24 1
27 10 25 ar
28 25 26 ar
29 26 27 ar
30 14 27 1
31 14 28 1
32 16 28 ar
33 16 29 ar
34 29 30 ar
35 30 31 ar
36 18 31 1
37 18 32 1
38 32 33 ar
39 32 37 ar
40 33 34 ar
41 34 35 ar
42 35 36 ar
43 36 37 ar
@<TRIPOS>SUBSTRUCTURE
1	RES1	1	GROUP	1 ****	RES
