# created with PyMOL 2.5.2
@<TRIPOS>MOLECULE
ALK_6MX8_TargetProtein
39 43 1                 
SMALL
USER_CHARGES
@<TRIPOS>ATOM
1	 CL1	5.008	14.290	10.766	Cl	1	RES1	0.000	
2	  P1	8.917	16.493	9.692	P.3	1	RES1	0.000	
3	  C1	-1.175	21.045	7.226	C.3	1	RES1	0.000	
4	  N1	3.006	23.425	5.365	N.pl3	1	RES1	0.000	
5	  O1	-0.053	20.421	7.861	O.3	1	RES1	0.000	
6	  C2	1.216	20.795	7.390	C.2	1	RES1	0.000	
7	  N2	3.342	26.911	2.832	N.3	1	RES1	0.000	
8	  C3	1.465	21.931	6.602	C.2	1	RES1	0.000	
9	  N3	2.802	29.722	2.219	N.3	1	RES1	0.000	
10	  C4	2.770	22.275	6.162	C.2	1	RES1	0.000	
11	  C5	3.722	24.586	5.917	C.3	1	RES1	0.000	
12	  C6	3.405	25.864	5.186	C.3	1	RES1	0.000	
13	  C7	3.571	25.670	3.654	C.3	1	RES1	0.000	
14	  N7	2.010	18.837	8.610	N.pl3	1	RES1	0.000	
15	  C8	4.354	27.962	3.056	C.3	1	RES1	0.000	
16	  N8	2.191	16.991	10.006	N.2	1	RES1	0.000	
17	  C9	4.145	29.143	2.103	C.3	1	RES1	0.000	
18	  N9	6.056	16.219	8.632	N.pl3	1	RES1	0.000	
19	 N10	4.037	17.520	8.643	N.2	1	RES1	0.000	
20	 O12	8.325	15.190	10.162	O.3	1	RES1	0.000	
21	 C36	1.771	28.705	2.018	C.3	1	RES1	0.000	
22	 C37	1.957	27.520	2.956	C.3	1	RES1	0.000	
23	 C38	2.720	24.526	3.160	C.3	1	RES1	0.000	
24	 C39	3.059	23.244	3.880	C.3	1	RES1	0.000	
25	 C40	3.796	21.445	6.610	C.2	1	RES1	0.000	
26	 C41	3.587	20.330	7.397	C.2	1	RES1	0.000	
27	 C42	2.286	19.991	7.812	C.2	1	RES1	0.000	
28	 C43	2.783	17.756	9.087	C.2	1	RES1	0.000	
29	 C44	2.863	15.960	10.488	C.2	1	RES1	0.000	
30	 C45	4.182	15.661	10.082	C.2	1	RES1	0.000	
31	 C46	4.746	16.481	9.129	C.2	1	RES1	0.000	
32	 C47	6.904	16.959	7.808	C.2	1	RES1	0.000	
33	 C48	6.469	17.523	6.573	C.2	1	RES1	0.000	
34	 C49	7.315	18.253	5.778	C.2	1	RES1	0.000	
35	 C50	8.641	18.475	6.160	C.2	1	RES1	0.000	
36	 C51	9.095	17.930	7.356	C.2	1	RES1	0.000	
37	 C52	8.244	17.167	8.184	C.2	1	RES1	0.000	
38	 C53	10.719	16.313	9.544	C.3	1	RES1	0.000	
39	 C54	8.752	17.739	11.031	C.3	1	RES1	0.000	
@<TRIPOS>BOND
1 1 30 1
2 2 20 1
3 2 37 1
4 2 38 1
5 2 39 1
6 4 10 1
7 4 11 1
8 4 24 1
9 3 5 1
10 5 6 1
11 6 8 ar
12 6 27 ar
13 7 13 1
14 7 15 1
15 7 22 1
16 8 10 ar
17 9 17 1
18 9 21 1
19 10 25 ar
20 11 12 1
21 12 13 1
22 15 17 1
23 19 28 ar
24 19 31 ar
25 21 22 1
26 13 23 1
27 23 24 1
28 25 26 ar
29 26 27 ar
30 14 27 1
31 14 28 1
32 16 28 ar
33 16 29 ar
34 29 30 ar
35 30 31 ar
36 18 31 1
37 18 32 1
38 32 33 ar
39 32 37 ar
40 33 34 ar
41 34 35 ar
42 35 36 ar
43 36 37 ar
@<TRIPOS>SUBSTRUCTURE
1	RES1	1	GROUP	1 ****	RES
