# created with PyMOL 2.5.2
@<TRIPOS>MOLECULE
ALK_6MX8_TargetProtein
39 43 1                 
SMALL
USER_CHARGES
@<TRIPOS>ATOM
1	 CL1	5.041	14.348	10.839	Cl	1	RES1	0.000	
2	  P1	8.878	16.550	9.705	P.3	1	RES1	0.000	
3	  C1	-1.177	21.030	7.226	C.3	1	RES1	0.000	
4	  N1	2.989	23.405	5.331	N.pl3	1	RES1	0.000	
5	  O1	-0.037	20.418	7.881	O.3	1	RES1	0.000	
6	  C2	1.237	20.799	7.399	C.2	1	RES1	0.000	
7	  N2	3.320	26.922	2.858	N.3	1	RES1	0.000	
8	  C3	1.485	21.920	6.591	C.2	1	RES1	0.000	
9	  N3	2.863	29.756	2.284	N.3	1	RES1	0.000	
10	  C4	2.756	22.245	6.129	C.2	1	RES1	0.000	
11	  C5	3.770	24.526	5.888	C.3	1	RES1	0.000	
12	  C6	3.415	25.820	5.164	C.3	1	RES1	0.000	
13	  C7	3.581	25.661	3.652	C.3	1	RES1	0.000	
14	  N7	2.013	18.813	8.586	N.pl3	1	RES1	0.000	
15	  O7	8.269	15.259	10.206	O.3	1	RES1	0.000	
16	  C8	4.382	27.938	3.034	C.3	1	RES1	0.000	
17	  N8	2.221	17.046	10.053	N.2	1	RES1	0.000	
18	  C9	4.175	29.138	2.107	C.3	1	RES1	0.000	
19	  N9	6.048	16.198	8.607	N.pl3	1	RES1	0.000	
20	 N10	4.016	17.492	8.592	N.2	1	RES1	0.000	
21	 C25	1.810	28.732	2.102	C.3	1	RES1	0.000	
22	 C26	1.996	27.542	3.038	C.3	1	RES1	0.000	
23	 C27	2.675	24.521	3.169	C.3	1	RES1	0.000	
24	 C28	3.007	23.225	3.872	C.3	1	RES1	0.000	
25	 C29	3.790	21.400	6.541	C.2	1	RES1	0.000	
26	 C30	3.587	20.258	7.341	C.2	1	RES1	0.000	
27	 C31	2.288	19.937	7.776	C.2	1	RES1	0.000	
28	 C32	2.776	17.739	9.060	C.2	1	RES1	0.000	
29	 C33	2.936	15.998	10.560	C.2	1	RES1	0.000	
30	 C34	4.198	15.670	10.120	C.2	1	RES1	0.000	
31	 C35	4.722	16.448	9.110	C.2	1	RES1	0.000	
32	 C36	6.891	16.954	7.773	C.2	1	RES1	0.000	
33	 C37	6.444	17.518	6.564	C.2	1	RES1	0.000	
34	 C38	7.290	18.275	5.773	C.2	1	RES1	0.000	
35	 C39	8.606	18.481	6.163	C.2	1	RES1	0.000	
36	 C40	9.077	17.946	7.356	C.2	1	RES1	0.000	
37	 C41	8.215	17.186	8.166	C.2	1	RES1	0.000	
38	 C42	8.756	17.811	11.005	C.3	1	RES1	0.000	
39	 C43	10.699	16.339	9.514	C.3	1	RES1	0.000	
@<TRIPOS>BOND
1 1 30 1
2 2 15 1
3 2 37 1
4 2 38 1
5 2 39 1
6 4 10 1
7 4 11 1
8 4 24 1
9 3 5 1
10 5 6 1
11 6 8 ar
12 6 27 ar
13 7 13 1
14 7 16 1
15 7 22 1
16 8 10 ar
17 9 18 1
18 11 12 1
19 12 13 1
20 16 18 1
21 20 28 ar
22 20 31 ar
23 9 21 1
24 21 22 1
25 13 23 1
26 23 24 1
27 10 25 ar
28 25 26 ar
29 26 27 ar
30 14 27 1
31 14 28 1
32 17 28 ar
33 17 29 ar
34 29 30 ar
35 30 31 ar
36 19 31 1
37 19 32 1
38 32 33 ar
39 32 37 ar
40 33 34 ar
41 34 35 ar
42 35 36 ar
43 36 37 ar
@<TRIPOS>SUBSTRUCTURE
1	RES1	1	GROUP	1 ****	RES
