# created with PyMOL 2.5.2
@<TRIPOS>MOLECULE
ALK_6MX8_TargetProtein
39 43 1                 
SMALL
USER_CHARGES
@<TRIPOS>ATOM
1	 CL1	5.729	14.625	10.596	Cl	1	RES1	0.000	
2	  P1	9.061	17.189	9.045	P.3	1	RES1	0.000	
3	  C1	-1.573	20.489	7.476	C.3	1	RES1	0.000	
4	  N1	2.336	23.148	5.351	N.pl3	1	RES1	0.000	
5	  O1	-0.382	20.021	8.089	O.3	1	RES1	0.000	
6	  C2	0.856	20.469	7.589	C.2	1	RES1	0.000	
7	  N2	3.477	26.496	3.026	N.3	1	RES1	0.000	
8	  C3	0.976	21.573	6.687	C.2	1	RES1	0.000	
9	  N3	5.415	28.686	2.997	N.3	1	RES1	0.000	
10	  C4	2.217	22.006	6.212	C.2	1	RES1	0.000	
11	  C5	1.986	23.014	3.920	C.3	1	RES1	0.000	
12	  C6	2.785	24.014	3.087	C.3	1	RES1	0.000	
13	  C7	2.499	25.491	3.537	C.3	1	RES1	0.000	
14	  N7	1.845	18.643	8.852	N.pl3	1	RES1	0.000	
15	  O7	10.508	16.854	8.737	O.3	1	RES1	0.000	
16	  C8	4.831	26.357	3.590	C.3	1	RES1	0.000	
17	  N8	2.419	16.805	10.301	N.2	1	RES1	0.000	
18	  C9	5.824	27.286	2.931	C.3	1	RES1	0.000	
19	  N9	6.102	16.695	8.388	N.pl3	1	RES1	0.000	
20	 N10	3.913	17.629	8.663	N.2	1	RES1	0.000	
21	 C25	4.076	28.840	2.446	C.3	1	RES1	0.000	
22	 C26	3.032	27.932	3.125	C.3	1	RES1	0.000	
23	 C27	2.297	25.584	5.055	C.3	1	RES1	0.000	
24	 C28	2.887	24.429	5.829	C.3	1	RES1	0.000	
25	 C29	3.326	21.278	6.628	C.2	1	RES1	0.000	
26	 C30	3.248	20.224	7.504	C.2	1	RES1	0.000	
27	 C31	1.992	19.783	7.974	C.2	1	RES1	0.000	
28	 C32	2.711	17.662	9.305	C.2	1	RES1	0.000	
29	 C33	3.361	15.918	10.653	C.2	1	RES1	0.000	
30	 C34	4.584	15.828	10.059	C.2	1	RES1	0.000	
31	 C35	4.875	16.738	9.030	C.2	1	RES1	0.000	
32	 C36	6.773	17.657	7.535	C.2	1	RES1	0.000	
33	 C37	6.109	18.323	6.479	C.2	1	RES1	0.000	
34	 C38	6.747	19.245	5.684	C.2	1	RES1	0.000	
35	 C39	8.082	19.543	5.931	C.2	1	RES1	0.000	
36	 C40	8.749	18.912	6.959	C.2	1	RES1	0.000	
37	 C41	8.137	17.952	7.743	C.2	1	RES1	0.000	
38	 C42	8.998	18.248	10.515	C.3	1	RES1	0.000	
39	 C43	8.198	15.675	9.605	C.3	1	RES1	0.000	
@<TRIPOS>BOND
1 1 30 1
2 2 15 1
3 2 37 1
4 2 38 1
5 2 39 1
6 4 10 1
7 4 11 1
8 4 24 1
9 3 5 1
10 5 6 1
11 6 8 ar
12 6 27 ar
13 7 13 1
14 7 16 1
15 7 22 1
16 8 10 ar
17 9 18 1
18 11 12 1
19 12 13 1
20 16 18 1
21 20 28 ar
22 20 31 ar
23 9 21 1
24 21 22 1
25 13 23 1
26 23 24 1
27 10 25 ar
28 25 26 ar
29 26 27 ar
30 14 27 1
31 14 28 1
32 17 28 ar
33 17 29 ar
34 29 30 ar
35 30 31 ar
36 19 31 1
37 19 32 1
38 32 33 ar
39 32 37 ar
40 33 34 ar
41 34 35 ar
42 35 36 ar
43 36 37 ar
@<TRIPOS>SUBSTRUCTURE
1	RES1	1	GROUP	1 ****	RES
