# created with PyMOL 2.5.2
@<TRIPOS>MOLECULE
ALK_6MX8_TargetProtein
39 43 1                 
SMALL
USER_CHARGES
@<TRIPOS>ATOM
1	 CL1	4.916	14.345	10.786	Cl	1	RES1	0.000	
2	  P1	8.830	16.534	9.689	P.3	1	RES1	0.000	
3	  C1	-1.012	21.065	6.768	C.3	1	RES1	0.000	
4	  N1	3.331	23.432	5.364	N.pl3	1	RES1	0.000	
5	  O1	0.010	20.435	7.534	O.3	1	RES1	0.000	
6	  C2	1.349	20.808	7.240	C.2	1	RES1	0.000	
7	  N2	3.547	27.146	3.389	N.3	1	RES1	0.000	
8	  C3	1.682	21.949	6.438	C.2	1	RES1	0.000	
9	  N3	1.930	29.105	1.891	N.3	1	RES1	0.000	
10	  C4	3.016	22.284	6.146	C.2	1	RES1	0.000	
11	  C5	3.222	24.790	5.980	C.3	1	RES1	0.000	
12	  C6	4.251	25.733	5.316	C.3	1	RES1	0.000	
13	  C7	4.083	25.806	3.794	C.3	1	RES1	0.000	
14	  N7	1.982	18.861	8.503	N.pl3	1	RES1	0.000	
15	  O7	8.207	15.250	10.169	O.3	1	RES1	0.000	
16	  C8	3.771	27.409	1.918	C.3	1	RES1	0.000	
17	  N8	2.070	16.987	9.989	N.2	1	RES1	0.000	
18	  C9	3.344	28.831	1.527	C.3	1	RES1	0.000	
19	  N9	5.959	16.297	8.656	N.pl3	1	RES1	0.000	
20	 N10	3.931	17.561	8.649	N.2	1	RES1	0.000	
21	 C26	1.715	28.827	3.317	C.3	1	RES1	0.000	
22	 C27	2.132	27.414	3.720	C.3	1	RES1	0.000	
23	 C28	3.339	24.590	3.214	C.3	1	RES1	0.000	
24	 C29	3.696	23.314	3.956	C.3	1	RES1	0.000	
25	 C30	3.976	21.413	6.655	C.2	1	RES1	0.000	
26	 C31	3.669	20.297	7.432	C.2	1	RES1	0.000	
27	 C32	2.328	19.969	7.708	C.2	1	RES1	0.000	
28	 C33	2.654	17.776	9.067	C.2	1	RES1	0.000	
29	 C34	2.782	15.970	10.479	C.2	1	RES1	0.000	
30	 C35	4.063	15.679	10.091	C.2	1	RES1	0.000	
31	 C36	4.645	16.540	9.134	C.2	1	RES1	0.000	
32	 C37	6.839	17.051	7.831	C.2	1	RES1	0.000	
33	 C38	6.384	17.598	6.628	C.2	1	RES1	0.000	
34	 C39	7.241	18.368	5.828	C.2	1	RES1	0.000	
35	 C40	8.564	18.532	6.205	C.2	1	RES1	0.000	
36	 C41	9.023	17.971	7.375	C.2	1	RES1	0.000	
37	 C42	8.176	17.235	8.193	C.2	1	RES1	0.000	
38	 C43	10.639	16.314	9.524	C.3	1	RES1	0.000	
39	 C44	8.716	17.769	11.033	C.3	1	RES1	0.000	
@<TRIPOS>BOND
1 1 30 1
2 2 15 1
3 2 37 1
4 2 38 1
5 2 39 1
6 4 10 1
7 4 11 1
8 4 24 1
9 3 5 1
10 5 6 1
11 6 8 ar
12 6 27 ar
13 7 13 1
14 7 16 1
15 7 22 1
16 8 10 ar
17 9 18 1
18 11 12 1
19 12 13 1
20 16 18 1
21 20 28 ar
22 20 31 ar
23 9 21 1
24 21 22 1
25 13 23 1
26 23 24 1
27 10 25 ar
28 25 26 ar
29 26 27 ar
30 14 27 1
31 14 28 1
32 17 28 ar
33 17 29 ar
34 29 30 ar
35 30 31 ar
36 19 31 1
37 19 32 1
38 32 33 ar
39 32 37 ar
40 33 34 ar
41 34 35 ar
42 35 36 ar
43 36 37 ar
@<TRIPOS>SUBSTRUCTURE
1	RES1	1	GROUP	1 ****	RES
