# created with PyMOL 2.5.2
@<TRIPOS>MOLECULE
ALK_6MX8_TargetProtein
39 43 1                 
SMALL
USER_CHARGES
@<TRIPOS>ATOM
1	 CL1	5.260	14.352	10.715	Cl	1	RES1	0.000	
2	  P1	9.039	16.713	9.578	P.3	1	RES1	0.000	
3	  C1	-1.385	20.451	6.918	C.3	1	RES1	0.000	
4	  N1	2.599	23.429	5.539	N.pl3	1	RES1	0.000	
5	  O1	-0.229	19.939	7.618	O.3	1	RES1	0.000	
6	  C2	0.999	20.503	7.313	C.2	1	RES1	0.000	
7	  N2	3.527	26.949	3.220	N.3	1	RES1	0.000	
8	  C3	1.167	21.707	6.557	C.2	1	RES1	0.000	
9	  N3	3.818	29.408	1.639	N.3	1	RES1	0.000	
10	  C4	2.422	22.251	6.313	C.2	1	RES1	0.000	
11	  C5	1.933	23.543	4.223	C.3	1	RES1	0.000	
12	  C6	2.664	24.536	3.339	C.3	1	RES1	0.000	
13	  C7	2.875	25.895	4.034	C.3	1	RES1	0.000	
14	  N7	1.932	18.655	8.590	N.pl3	1	RES1	0.000	
15	  O7	8.482	15.358	10.024	O.3	1	RES1	0.000	
16	  C8	3.098	27.020	1.800	C.3	1	RES1	0.000	
17	  N8	2.238	16.814	9.991	N.2	1	RES1	0.000	
18	  C9	3.900	28.066	1.008	C.3	1	RES1	0.000	
19	  N9	6.141	16.360	8.614	N.pl3	1	RES1	0.000	
20	 N10	4.034	17.518	8.607	N.2	1	RES1	0.000	
21	 C27	4.229	29.362	3.034	C.3	1	RES1	0.000	
22	 C28	3.434	28.301	3.818	C.3	1	RES1	0.000	
23	 C29	3.659	25.650	5.341	C.3	1	RES1	0.000	
24	 C30	2.905	24.692	6.249	C.3	1	RES1	0.000	
25	 C31	3.515	21.562	6.808	C.2	1	RES1	0.000	
26	 C32	3.383	20.346	7.575	C.2	1	RES1	0.000	
27	 C33	2.109	19.855	7.837	C.2	1	RES1	0.000	
28	 C34	2.757	17.645	9.059	C.2	1	RES1	0.000	
29	 C35	3.019	15.830	10.463	C.2	1	RES1	0.000	
30	 C36	4.305	15.646	10.053	C.2	1	RES1	0.000	
31	 C37	4.830	16.520	9.100	C.2	1	RES1	0.000	
32	 C38	6.965	17.171	7.794	C.2	1	RES1	0.000	
33	 C39	6.455	17.760	6.635	C.2	1	RES1	0.000	
34	 C40	7.231	18.562	5.813	C.2	1	RES1	0.000	
35	 C41	8.577	18.778	6.161	C.2	1	RES1	0.000	
36	 C42	9.094	18.220	7.305	C.2	1	RES1	0.000	
37	 C43	8.302	17.405	8.133	C.2	1	RES1	0.000	
38	 C44	10.838	16.596	9.361	C.3	1	RES1	0.000	
39	 C45	8.885	17.901	10.959	C.3	1	RES1	0.000	
@<TRIPOS>BOND
1 1 30 1
2 2 15 1
3 2 37 1
4 2 38 1
5 2 39 1
6 4 10 1
7 4 11 1
8 4 24 1
9 3 5 1
10 5 6 1
11 6 8 ar
12 6 27 ar
13 7 13 1
14 7 16 1
15 7 22 1
16 8 10 ar
17 9 18 1
18 11 12 1
19 12 13 1
20 16 18 1
21 20 28 ar
22 20 31 ar
23 9 21 1
24 21 22 1
25 13 23 1
26 23 24 1
27 10 25 ar
28 25 26 ar
29 26 27 ar
30 14 27 1
31 14 28 1
32 17 28 ar
33 17 29 ar
34 29 30 ar
35 30 31 ar
36 19 31 1
37 19 32 1
38 32 33 ar
39 32 37 ar
40 33 34 ar
41 34 35 ar
42 35 36 ar
43 36 37 ar
@<TRIPOS>SUBSTRUCTURE
1	RES1	1	GROUP	1 ****	RES
