# created with PyMOL 2.5.2
@<TRIPOS>MOLECULE
BRD4_6DL2_TargetProtein
22 25 1                 
SMALL
USER_CHARGES
@<TRIPOS>ATOM
1	  C1	11.473	3.581	-2.294	C.3	1	RES1	0.000	
2	  N1	13.574	3.994	-1.116	N.2	1	RES1	0.000	
3	  O1	12.034	5.309	2.790	O.3	1	RES1	0.000	
4	  S1	9.348	5.482	-1.017	S.2	1	RES1	0.000	
5	  C2	12.272	4.162	-1.189	C.2	1	RES1	0.000	
6	  N2	14.009	4.576	0.026	N.2	1	RES1	0.000	
7	  C3	12.976	5.086	0.640	C.2	1	RES1	0.000	
8	  C4	13.088	5.810	1.920	C.3	1	RES1	0.000	
9	  C5	10.876	6.103	2.706	C.3	1	RES1	0.000	
10	  C6	10.108	5.986	1.408	C.2	1	RES1	0.000	
11	  C7	10.538	5.438	0.219	C.2	1	RES1	0.000	
12	  N7	11.832	4.916	-0.123	N.2	1	RES1	0.000	
13	  C8	8.204	6.214	0.033	C.2	1	RES1	0.000	
14	  C9	6.831	6.494	-0.488	C.3	1	RES1	0.000	
15	 C32	8.728	6.461	1.303	C.2	1	RES1	0.000	
16	 C33	7.956	7.116	2.390	C.3	1	RES1	0.000	
17	 C34	7.606	6.103	3.433	C.2	1	RES1	0.000	
18	 C35	6.923	4.900	3.142	C.2	1	RES1	0.000	
19	 C36	6.608	3.969	4.140	C.2	1	RES1	0.000	
20	 C37	7.009	4.227	5.444	C.2	1	RES1	0.000	
21	 C38	7.673	5.352	5.781	C.2	1	RES1	0.000	
22	 C39	8.011	6.297	4.794	C.2	1	RES1	0.000	
@<TRIPOS>BOND
1 1 5 1
2 2 5 ar
3 2 6 ar
4 3 8 1
5 3 9 1
6 4 11 ar
7 4 13 ar
8 5 12 ar
9 6 7 ar
10 7 8 1
11 7 12 ar
12 9 10 1
13 10 11 ar
14 11 12 1
15 13 14 1
16 10 15 ar
17 13 15 ar
18 15 16 1
19 16 17 1
20 17 18 ar
21 17 22 ar
22 18 19 ar
23 19 20 ar
24 20 21 ar
25 21 22 ar
@<TRIPOS>SUBSTRUCTURE
1	RES1	1	GROUP	1 ****	RES
