# created with PyMOL 2.5.2
@<TRIPOS>MOLECULE
ALK_6MX8_TargetProtein
39 43 1                 
SMALL
USER_CHARGES
@<TRIPOS>ATOM
1	 CL1	5.520	14.389	10.424	Cl	1	RES1	0.000	
2	  P1	8.965	17.006	9.263	P.3	1	RES1	0.000	
3	  C1	-1.498	20.354	6.989	C.3	1	RES1	0.000	
4	  N1	2.474	23.433	5.741	N.pl3	1	RES1	0.000	
5	  O1	-0.373	19.844	7.689	O.3	1	RES1	0.000	
6	  C2	0.884	20.420	7.433	C.2	1	RES1	0.000	
7	  N2	3.344	26.965	3.472	N.3	1	RES1	0.000	
8	  C3	1.048	21.635	6.716	C.2	1	RES1	0.000	
9	  N3	5.062	28.155	1.399	N.3	1	RES1	0.000	
10	  C4	2.308	22.193	6.489	C.2	1	RES1	0.000	
11	  C5	1.815	23.573	4.447	C.3	1	RES1	0.000	
12	  C6	2.548	24.593	3.605	C.3	1	RES1	0.000	
13	  C7	2.753	25.958	4.339	C.3	1	RES1	0.000	
14	  N7	1.801	18.555	8.654	N.pl3	1	RES1	0.000	
15	  O7	8.510	15.597	9.580	O.3	1	RES1	0.000	
16	  C8	4.819	27.117	3.673	C.3	1	RES1	0.000	
17	  N8	2.285	16.639	10.013	N.2	1	RES1	0.000	
18	  C9	5.370	28.271	2.816	C.3	1	RES1	0.000	
19	  N9	6.075	16.543	8.342	N.pl3	1	RES1	0.000	
20	 N10	3.901	17.520	8.536	N.2	1	RES1	0.000	
21	 C28	3.624	28.008	1.206	C.3	1	RES1	0.000	
22	 C29	3.021	26.851	2.001	C.3	1	RES1	0.000	
23	 C30	3.493	25.660	5.653	C.3	1	RES1	0.000	
24	 C31	2.789	24.643	6.521	C.3	1	RES1	0.000	
25	 C32	3.421	21.524	6.997	C.2	1	RES1	0.000	
26	 C33	3.245	20.320	7.709	C.2	1	RES1	0.000	
27	 C34	2.023	19.759	7.965	C.2	1	RES1	0.000	
28	 C35	2.652	17.544	9.111	C.2	1	RES1	0.000	
29	 C36	3.174	15.713	10.417	C.2	1	RES1	0.000	
30	 C37	4.446	15.636	9.872	C.2	1	RES1	0.000	
31	 C38	4.785	16.568	8.895	C.2	1	RES1	0.000	
32	 C39	6.821	17.553	7.595	C.2	1	RES1	0.000	
33	 C40	6.205	18.250	6.576	C.2	1	RES1	0.000	
34	 C41	6.906	19.258	5.875	C.2	1	RES1	0.000	
35	 C42	8.209	19.534	6.201	C.2	1	RES1	0.000	
36	 C43	8.814	18.826	7.238	C.2	1	RES1	0.000	
37	 C44	8.130	17.860	7.952	C.2	1	RES1	0.000	
38	 C45	10.766	17.009	8.947	C.3	1	RES1	0.000	
39	 C46	8.871	17.989	10.788	C.3	1	RES1	0.000	
@<TRIPOS>BOND
1 1 30 1
2 2 15 1
3 2 37 1
4 2 38 1
5 2 39 1
6 4 10 1
7 4 11 1
8 4 24 1
9 3 5 1
10 5 6 1
11 6 8 ar
12 6 27 ar
13 7 13 1
14 7 16 1
15 7 22 1
16 8 10 ar
17 9 18 1
18 11 12 1
19 12 13 1
20 16 18 1
21 20 28 ar
22 20 31 ar
23 9 21 1
24 21 22 1
25 13 23 1
26 23 24 1
27 10 25 ar
28 25 26 ar
29 26 27 ar
30 14 27 1
31 14 28 1
32 17 28 ar
33 17 29 ar
34 29 30 ar
35 30 31 ar
36 19 31 1
37 19 32 1
38 32 33 ar
39 32 37 ar
40 33 34 ar
41 34 35 ar
42 35 36 ar
43 36 37 ar
@<TRIPOS>SUBSTRUCTURE
1	RES1	1	GROUP	1 ****	RES
