# created with PyMOL 2.5.2
@<TRIPOS>MOLECULE
ALK_6MX8_TargetProtein
39 43 1                 
SMALL
USER_CHARGES
@<TRIPOS>ATOM
1	 CL1	5.288	14.384	10.767	Cl	1	RES1	0.000	
2	  P1	9.012	16.676	9.617	P.3	1	RES1	0.000	
3	  C1	-1.383	20.486	6.948	C.3	1	RES1	0.000	
4	  N1	2.597	23.425	5.517	N.pl3	1	RES1	0.000	
5	  O1	-0.247	19.965	7.654	O.3	1	RES1	0.000	
6	  C2	1.004	20.526	7.337	C.2	1	RES1	0.000	
7	  N2	3.518	26.991	3.255	N.3	1	RES1	0.000	
8	  C3	1.155	21.711	6.580	C.2	1	RES1	0.000	
9	  N3	3.770	29.386	1.580	N.3	1	RES1	0.000	
10	  C4	2.440	22.244	6.285	C.2	1	RES1	0.000	
11	  C5	1.899	23.591	4.243	C.3	1	RES1	0.000	
12	  C6	2.611	24.592	3.362	C.3	1	RES1	0.000	
13	  C7	2.864	25.926	4.083	C.3	1	RES1	0.000	
14	  N7	1.946	18.635	8.564	N.pl3	1	RES1	0.000	
15	  O7	8.430	15.356	10.016	O.3	1	RES1	0.000	
16	  C8	3.275	28.347	3.795	C.3	1	RES1	0.000	
17	  N8	2.265	16.837	9.997	N.2	1	RES1	0.000	
18	  C9	4.086	29.400	3.004	C.3	1	RES1	0.000	
19	  N9	6.140	16.352	8.580	N.pl3	1	RES1	0.000	
20	 N10	4.037	17.480	8.577	N.2	1	RES1	0.000	
21	 C29	4.022	28.025	1.042	C.3	1	RES1	0.000	
22	 C30	3.224	26.933	1.794	C.3	1	RES1	0.000	
23	 C31	3.683	25.656	5.346	C.3	1	RES1	0.000	
24	 C32	2.955	24.658	6.268	C.3	1	RES1	0.000	
25	 C33	3.539	21.505	6.750	C.2	1	RES1	0.000	
26	 C34	3.394	20.325	7.481	C.2	1	RES1	0.000	
27	 C35	2.120	19.814	7.788	C.2	1	RES1	0.000	
28	 C36	2.773	17.635	9.040	C.2	1	RES1	0.000	
29	 C37	3.035	15.872	10.482	C.2	1	RES1	0.000	
30	 C38	4.319	15.654	10.076	C.2	1	RES1	0.000	
31	 C39	4.815	16.508	9.038	C.2	1	RES1	0.000	
32	 C40	6.975	17.184	7.791	C.2	1	RES1	0.000	
33	 C41	6.477	17.778	6.642	C.2	1	RES1	0.000	
34	 C42	7.282	18.589	5.819	C.2	1	RES1	0.000	
35	 C43	8.606	18.796	6.176	C.2	1	RES1	0.000	
36	 C44	9.099	18.223	7.313	C.2	1	RES1	0.000	
37	 C45	8.281	17.411	8.151	C.2	1	RES1	0.000	
38	 C46	10.808	16.524	9.382	C.3	1	RES1	0.000	
39	 C47	8.893	17.864	10.994	C.3	1	RES1	0.000	
@<TRIPOS>BOND
1 1 30 1
2 2 15 1
3 2 37 1
4 2 38 1
5 2 39 1
6 4 10 1
7 4 11 1
8 4 24 1
9 3 5 1
10 5 6 1
11 6 8 ar
12 6 27 ar
13 7 13 1
14 7 16 1
15 7 22 1
16 8 10 ar
17 9 18 1
18 11 12 1
19 12 13 1
20 16 18 1
21 20 28 ar
22 20 31 ar
23 9 21 1
24 21 22 1
25 13 23 1
26 23 24 1
27 10 25 ar
28 25 26 ar
29 26 27 ar
30 14 27 1
31 14 28 1
32 17 28 ar
33 17 29 ar
34 29 30 ar
35 30 31 ar
36 19 31 1
37 19 32 1
38 32 33 ar
39 32 37 ar
40 33 34 ar
41 34 35 ar
42 35 36 ar
43 36 37 ar
@<TRIPOS>SUBSTRUCTURE
1	RES1	1	GROUP	1 ****	RES
