# created with PyMOL 2.5.2
@<TRIPOS>MOLECULE
ALK_6MX8_TargetProtein
39 43 1                 
SMALL
USER_CHARGES
@<TRIPOS>ATOM
1	 CL1	4.898	14.230	10.670	Cl	1	RES1	0.000	
2	  P1	8.833	16.423	9.776	P.3	1	RES1	0.000	
3	  C1	-1.103	21.024	6.929	C.3	1	RES1	0.000	
4	  N1	3.151	23.631	5.603	N.pl3	1	RES1	0.000	
5	  O1	-0.021	20.396	7.632	O.3	1	RES1	0.000	
6	  C2	1.283	20.834	7.315	C.2	1	RES1	0.000	
7	  N2	3.455	27.330	3.406	N.3	1	RES1	0.000	
8	  C3	1.564	22.003	6.614	C.2	1	RES1	0.000	
9	  N3	2.173	28.875	1.239	N.3	1	RES1	0.000	
10	  C4	2.878	22.404	6.310	C.2	1	RES1	0.000	
11	  C5	3.716	24.798	6.322	C.3	1	RES1	0.000	
12	  C6	3.395	26.075	5.613	C.3	1	RES1	0.000	
13	  C7	3.813	26.059	4.105	C.3	1	RES1	0.000	
14	  N7	1.989	18.815	8.452	N.pl3	1	RES1	0.000	
15	  O7	8.167	15.170	10.213	O.3	1	RES1	0.000	
16	  C8	4.024	27.417	2.036	C.3	1	RES1	0.000	
17	  N8	2.115	16.961	9.859	N.2	1	RES1	0.000	
18	  C9	3.625	28.704	1.268	C.3	1	RES1	0.000	
19	  N9	6.027	16.188	8.585	N.pl3	1	RES1	0.000	
20	 N10	4.014	17.500	8.519	N.2	1	RES1	0.000	
21	 C30	1.609	28.846	2.600	C.3	1	RES1	0.000	
22	 C31	1.992	27.577	3.370	C.3	1	RES1	0.000	
23	 C32	3.150	24.835	3.437	C.3	1	RES1	0.000	
24	 C33	3.476	23.513	4.171	C.3	1	RES1	0.000	
25	 C34	3.909	21.571	6.753	C.2	1	RES1	0.000	
26	 C35	3.628	20.402	7.467	C.2	1	RES1	0.000	
27	 C36	2.334	19.991	7.725	C.2	1	RES1	0.000	
28	 C37	2.746	17.716	8.934	C.2	1	RES1	0.000	
29	 C38	2.816	15.908	10.329	C.2	1	RES1	0.000	
30	 C39	4.105	15.621	9.971	C.2	1	RES1	0.000	
31	 C40	4.704	16.432	9.007	C.2	1	RES1	0.000	
32	 C41	6.941	16.965	7.815	C.2	1	RES1	0.000	
33	 C42	6.558	17.546	6.594	C.2	1	RES1	0.000	
34	 C43	7.465	18.287	5.824	C.2	1	RES1	0.000	
35	 C44	8.770	18.415	6.253	C.2	1	RES1	0.000	
36	 C45	9.162	17.857	7.450	C.2	1	RES1	0.000	
37	 C46	8.273	17.127	8.251	C.2	1	RES1	0.000	
38	 C47	8.731	17.676	11.075	C.3	1	RES1	0.000	
39	 C48	10.644	16.145	9.649	C.3	1	RES1	0.000	
@<TRIPOS>BOND
1 1 30 1
2 2 15 1
3 2 37 1
4 2 38 1
5 2 39 1
6 4 10 1
7 4 11 1
8 4 24 1
9 3 5 1
10 5 6 1
11 6 8 ar
12 6 27 ar
13 7 13 1
14 7 16 1
15 7 22 1
16 8 10 ar
17 9 18 1
18 9 21 1
19 11 12 1
20 12 13 1
21 16 18 1
22 20 28 ar
23 20 31 ar
24 21 22 1
25 13 23 1
26 23 24 1
27 10 25 ar
28 25 26 ar
29 26 27 ar
30 14 27 1
31 14 28 1
32 17 28 ar
33 17 29 ar
34 29 30 ar
35 30 31 ar
36 19 31 1
37 19 32 1
38 32 33 ar
39 32 37 ar
40 33 34 ar
41 34 35 ar
42 35 36 ar
43 36 37 ar
@<TRIPOS>SUBSTRUCTURE
1	RES1	1	GROUP	1 ****	RES
