# created with PyMOL 2.5.2
@<TRIPOS>MOLECULE
EGFR_4I24_TargetProtein
33 36 1                 
SMALL
USER_CHARGES
@<TRIPOS>ATOM
1	 CL1	-10.212	46.752	0.427	Cl	1	RES1	0.000	
2	  C1	-14.417	38.215	-3.999	C.2	1	RES1	0.000	
3	  N1	-15.674	33.840	-2.179	N.3	1	RES1	0.000	
4	  O1	-13.210	37.910	-3.939	O.2	1	RES1	0.000	
5	  C2	-15.503	37.257	-3.681	C.3	1	RES1	0.000	
6	  N2	-14.911	39.475	-4.373	N.pl3	1	RES1	0.000	
7	  O2	-15.481	40.583	-6.736	O.3	1	RES1	0.000	
8	  C3	-15.217	36.008	-3.244	C.3	1	RES1	0.000	
9	  N3	-11.084	42.452	-2.330	N.pl3	1	RES1	0.000	
10	  C4	-16.230	34.981	-2.936	C.3	1	RES1	0.000	
11	  N4	-10.788	44.015	-4.083	N.2	1	RES1	0.000	
12	  C5	-16.619	32.699	-2.162	C.3	1	RES1	0.000	
13	  N5	-12.111	43.995	-6.078	N.2	1	RES1	0.000	
14	  C6	-16.025	31.471	-1.457	C.3	1	RES1	0.000	
15	  C7	-15.561	31.801	-0.049	C.3	1	RES1	0.000	
16	  C8	-14.643	33.026	-0.073	C.3	1	RES1	0.000	
17	  C9	-15.255	34.213	-0.803	C.3	1	RES1	0.000	
18	 C10	-14.166	40.629	-4.747	C.2	1	RES1	0.000	
19	 C11	-13.158	41.165	-3.955	C.2	1	RES1	0.000	
20	 C12	-12.471	42.336	-4.339	C.2	1	RES1	0.000	
21	 C13	-11.430	42.950	-3.616	C.2	1	RES1	0.000	
22	 C14	-10.488	43.098	-1.217	C.2	1	RES1	0.000	
23	 C15	-9.745	42.335	-0.312	C.2	1	RES1	0.000	
24	 C16	-9.144	42.909	0.805	C.2	1	RES1	0.000	
25	 C17	-9.297	44.275	1.029	C.2	1	RES1	0.000	
26	 C18	-10.035	45.057	0.158	C.2	1	RES1	0.000	
27	 C19	-10.630	44.463	-0.974	C.2	1	RES1	0.000	
28	 C20	-11.143	44.493	-5.305	C.2	1	RES1	0.000	
29	 C21	-12.770	42.921	-5.624	C.2	1	RES1	0.000	
30	 C22	-13.750	42.335	-6.422	C.2	1	RES1	0.000	
31	 C23	-14.498	41.218	-5.983	C.2	1	RES1	0.000	
32	 C24	-15.767	41.141	-8.020	C.3	1	RES1	0.000	
33	  F1	-8.712	44.823	2.104	 F	1	RES1	0.000	
@<TRIPOS>BOND
1 1 26 1
2 2 5 1
3 2 6 1
4 3 10 1
5 3 12 1
6 3 17 1
7 2 4 2
8 5 8 1
9 7 31 1
10 7 32 1
11 8 10 1
12 12 14 1
13 14 15 1
14 15 16 1
15 16 17 1
16 6 18 1
17 18 19 ar
18 18 31 ar
19 19 20 ar
20 20 21 ar
21 20 29 ar
22 9 21 1
23 11 21 ar
24 9 22 1
25 22 23 ar
26 22 27 ar
27 23 24 ar
28 24 25 ar
29 25 26 ar
30 26 27 ar
31 11 28 ar
32 13 28 ar
33 13 29 ar
34 29 30 ar
35 30 31 ar
36 25 33 1
@<TRIPOS>SUBSTRUCTURE
1	RES1	1	GROUP	1 ****	RES
