# created with PyMOL 2.5.2
@<TRIPOS>MOLECULE
EGFR_4I24_TargetProtein
33 36 1                 
SMALL
USER_CHARGES
@<TRIPOS>ATOM
1	 CL1	-10.205	46.767	0.421	Cl	1	RES1	0.000	
2	  C1	-14.393	38.212	-3.972	C.2	1	RES1	0.000	
3	  N1	-15.744	33.819	-2.200	N.3	1	RES1	0.000	
4	  O1	-13.227	37.891	-3.853	O.2	1	RES1	0.000	
5	  C2	-15.503	37.236	-3.731	C.3	1	RES1	0.000	
6	  N2	-14.915	39.444	-4.375	N.pl3	1	RES1	0.000	
7	  O2	-15.470	40.566	-6.732	O.3	1	RES1	0.000	
8	  C3	-15.196	35.977	-3.273	C.3	1	RES1	0.000	
9	  N3	-11.079	42.441	-2.327	N.pl3	1	RES1	0.000	
10	  C4	-16.265	34.957	-2.982	C.3	1	RES1	0.000	
11	  N4	-10.780	44.044	-4.083	N.2	1	RES1	0.000	
12	  C5	-14.853	32.943	-2.989	C.3	1	RES1	0.000	
13	  N5	-12.120	44.013	-6.082	N.2	1	RES1	0.000	
14	  C6	-14.318	31.797	-2.178	C.3	1	RES1	0.000	
15	  C7	-15.422	30.985	-1.533	C.3	1	RES1	0.000	
16	  C8	-16.378	31.896	-0.756	C.3	1	RES1	0.000	
17	  C9	-16.879	33.040	-1.634	C.3	1	RES1	0.000	
18	 C10	-14.144	40.612	-4.755	C.2	1	RES1	0.000	
19	 C11	-13.158	41.169	-3.959	C.2	1	RES1	0.000	
20	 C12	-12.463	42.336	-4.349	C.2	1	RES1	0.000	
21	 C13	-11.430	42.948	-3.602	C.2	1	RES1	0.000	
22	 C14	-10.504	43.095	-1.215	C.2	1	RES1	0.000	
23	 C15	-9.742	42.335	-0.318	C.2	1	RES1	0.000	
24	 C16	-9.112	42.943	0.800	C.2	1	RES1	0.000	
25	 C17	-9.284	44.302	1.026	C.2	1	RES1	0.000	
26	 C18	-10.033	45.046	0.136	C.2	1	RES1	0.000	
27	 C19	-10.613	44.478	-0.964	C.2	1	RES1	0.000	
28	 C20	-11.148	44.527	-5.283	C.2	1	RES1	0.000	
29	 C21	-12.759	42.896	-5.606	C.2	1	RES1	0.000	
30	 C22	-13.758	42.332	-6.399	C.2	1	RES1	0.000	
31	 C23	-14.467	41.192	-5.975	C.2	1	RES1	0.000	
32	 C24	-15.800	41.173	-8.003	C.3	1	RES1	0.000	
33	  F1	-8.713	44.851	2.085	 F	1	RES1	0.000	
@<TRIPOS>BOND
1 1 26 1
2 2 5 1
3 2 6 1
4 3 10 1
5 3 12 1
6 3 17 1
7 2 4 2
8 5 8 1
9 7 31 1
10 7 32 1
11 8 10 1
12 12 14 1
13 14 15 1
14 15 16 1
15 16 17 1
16 6 18 1
17 18 19 ar
18 18 31 ar
19 19 20 ar
20 20 21 ar
21 20 29 ar
22 9 21 1
23 11 21 ar
24 9 22 1
25 22 23 ar
26 22 27 ar
27 23 24 ar
28 24 25 ar
29 25 26 ar
30 26 27 ar
31 11 28 ar
32 13 28 ar
33 13 29 ar
34 29 30 ar
35 30 31 ar
36 25 33 1
@<TRIPOS>SUBSTRUCTURE
1	RES1	1	GROUP	1 ****	RES
