# created with PyMOL 2.5.2
@<TRIPOS>MOLECULE
EGFR_4I24_TargetProtein
33 36 1                 
SMALL
USER_CHARGES
@<TRIPOS>ATOM
1	 CL1	-10.224	46.749	0.439	Cl	1	RES1	0.000	
2	  C1	-14.403	38.208	-3.994	C.2	1	RES1	0.000	
3	  N1	-15.696	33.835	-2.193	N.3	1	RES1	0.000	
4	  O1	-13.229	37.890	-3.883	O.2	1	RES1	0.000	
5	  C2	-15.503	37.251	-3.698	C.3	1	RES1	0.000	
6	  N2	-14.907	39.458	-4.377	N.pl3	1	RES1	0.000	
7	  O2	-15.454	40.561	-6.734	O.3	1	RES1	0.000	
8	  C3	-15.217	36.016	-3.273	C.3	1	RES1	0.000	
9	  N3	-11.080	42.451	-2.324	N.pl3	1	RES1	0.000	
10	  C4	-16.255	34.980	-2.948	C.3	1	RES1	0.000	
11	  N4	-10.790	44.037	-4.089	N.2	1	RES1	0.000	
12	  C5	-16.676	32.706	-2.215	C.3	1	RES1	0.000	
13	  N5	-12.109	44.001	-6.102	N.2	1	RES1	0.000	
14	  C6	-16.115	31.473	-1.490	C.3	1	RES1	0.000	
15	  C7	-15.678	31.806	-0.068	C.3	1	RES1	0.000	
16	  C8	-14.724	33.014	-0.062	C.3	1	RES1	0.000	
17	  C9	-15.337	34.195	-0.823	C.3	1	RES1	0.000	
18	 C10	-14.151	40.618	-4.748	C.2	1	RES1	0.000	
19	 C11	-13.161	41.166	-3.959	C.2	1	RES1	0.000	
20	 C12	-12.467	42.329	-4.353	C.2	1	RES1	0.000	
21	 C13	-11.446	42.958	-3.603	C.2	1	RES1	0.000	
22	 C14	-10.512	43.101	-1.212	C.2	1	RES1	0.000	
23	 C15	-9.735	42.323	-0.323	C.2	1	RES1	0.000	
24	 C16	-9.139	42.920	0.795	C.2	1	RES1	0.000	
25	 C17	-9.279	44.287	1.025	C.2	1	RES1	0.000	
26	 C18	-10.040	45.061	0.136	C.2	1	RES1	0.000	
27	 C19	-10.645	44.466	-0.949	C.2	1	RES1	0.000	
28	 C20	-11.170	44.513	-5.290	C.2	1	RES1	0.000	
29	 C21	-12.750	42.893	-5.623	C.2	1	RES1	0.000	
30	 C22	-13.743	42.335	-6.431	C.2	1	RES1	0.000	
31	 C23	-14.435	41.175	-5.993	C.2	1	RES1	0.000	
32	 C24	-15.812	41.190	-7.971	C.3	1	RES1	0.000	
33	  F1	-8.681	44.843	2.104	 F	1	RES1	0.000	
@<TRIPOS>BOND
1 1 26 1
2 2 5 1
3 2 6 1
4 3 10 1
5 3 12 1
6 3 17 1
7 2 4 2
8 5 8 1
9 7 31 1
10 7 32 1
11 8 10 1
12 12 14 1
13 14 15 1
14 15 16 1
15 16 17 1
16 6 18 1
17 18 19 ar
18 18 31 ar
19 19 20 ar
20 20 21 ar
21 20 29 ar
22 9 21 1
23 11 21 ar
24 9 22 1
25 22 23 ar
26 22 27 ar
27 23 24 ar
28 24 25 ar
29 25 26 ar
30 26 27 ar
31 11 28 ar
32 13 28 ar
33 13 29 ar
34 29 30 ar
35 30 31 ar
36 25 33 1
@<TRIPOS>SUBSTRUCTURE
1	RES1	1	GROUP	1 ****	RES
