# created with PyMOL 2.5.2
@<TRIPOS>MOLECULE
EGFR_4I24_TargetProtein
33 36 1                 
SMALL
USER_CHARGES
@<TRIPOS>ATOM
1	 CL1	-10.293	46.733	0.269	Cl	1	RES1	0.000	
2	  C1	-14.406	38.224	-4.004	C.2	1	RES1	0.000	
3	  N1	-15.709	33.798	-2.175	N.3	1	RES1	0.000	
4	  O1	-13.225	37.894	-3.916	O.2	1	RES1	0.000	
5	  C2	-15.480	37.274	-3.701	C.3	1	RES1	0.000	
6	  N2	-14.891	39.454	-4.389	N.pl3	1	RES1	0.000	
7	  O2	-15.456	40.598	-6.765	O.3	1	RES1	0.000	
8	  C3	-15.261	36.018	-3.270	C.3	1	RES1	0.000	
9	  N3	-11.059	42.372	-2.311	N.pl3	1	RES1	0.000	
10	  C4	-16.247	34.957	-2.921	C.3	1	RES1	0.000	
11	  N4	-10.812	44.051	-4.017	N.2	1	RES1	0.000	
12	  C5	-16.635	32.630	-2.349	C.3	1	RES1	0.000	
13	  N5	-12.138	44.035	-6.009	N.2	1	RES1	0.000	
14	  C6	-16.052	31.406	-1.630	C.3	1	RES1	0.000	
15	  C7	-15.752	31.669	-0.165	C.3	1	RES1	0.000	
16	  C8	-14.913	32.925	0.000	C.3	1	RES1	0.000	
17	  C9	-15.504	34.114	-0.750	C.3	1	RES1	0.000	
18	 C10	-14.148	40.621	-4.764	C.2	1	RES1	0.000	
19	 C11	-13.159	41.158	-3.947	C.2	1	RES1	0.000	
20	 C12	-12.452	42.331	-4.368	C.2	1	RES1	0.000	
21	 C13	-11.426	42.928	-3.584	C.2	1	RES1	0.000	
22	 C14	-10.480	42.977	-1.198	C.2	1	RES1	0.000	
23	 C15	-9.692	42.291	-0.260	C.2	1	RES1	0.000	
24	 C16	-9.093	42.962	0.825	C.2	1	RES1	0.000	
25	 C17	-9.299	44.317	0.990	C.2	1	RES1	0.000	
26	 C18	-10.051	45.030	0.075	C.2	1	RES1	0.000	
27	 C19	-10.641	44.382	-1.006	C.2	1	RES1	0.000	
28	 C20	-11.176	44.533	-5.194	C.2	1	RES1	0.000	
29	 C21	-12.753	42.917	-5.593	C.2	1	RES1	0.000	
30	 C22	-13.734	42.368	-6.381	C.2	1	RES1	0.000	
31	 C23	-14.456	41.215	-6.001	C.2	1	RES1	0.000	
32	 C24	-15.783	41.223	-8.009	C.3	1	RES1	0.000	
33	  F1	-8.711	44.944	2.056	 F	1	RES1	0.000	
@<TRIPOS>BOND
1 1 26 1
2 2 5 1
3 2 6 1
4 3 10 1
5 3 12 1
6 3 17 1
7 2 4 2
8 5 8 1
9 7 31 1
10 7 32 1
11 8 10 1
12 12 14 1
13 14 15 1
14 15 16 1
15 16 17 1
16 6 18 1
17 18 19 ar
18 18 31 ar
19 19 20 ar
20 20 21 ar
21 20 29 ar
22 9 21 1
23 11 21 ar
24 9 22 1
25 22 23 ar
26 22 27 ar
27 23 24 ar
28 24 25 ar
29 25 26 ar
30 26 27 ar
31 11 28 ar
32 13 28 ar
33 13 29 ar
34 29 30 ar
35 30 31 ar
36 25 33 1
@<TRIPOS>SUBSTRUCTURE
1	RES1	1	GROUP	1 ****	RES
