# created with PyMOL 2.5.2
@<TRIPOS>MOLECULE
EGFR_4I24_TargetProtein
33 36 1                 
SMALL
USER_CHARGES
@<TRIPOS>ATOM
1	 CL1	-10.214	46.766	0.404	Cl	1	RES1	0.000	
2	  C1	-14.423	38.215	-4.035	C.2	1	RES1	0.000	
3	  N1	-15.656	33.838	-2.186	N.3	1	RES1	0.000	
4	  O1	-13.217	37.896	-3.949	O.2	1	RES1	0.000	
5	  C2	-15.485	37.253	-3.667	C.3	1	RES1	0.000	
6	  N2	-14.918	39.472	-4.377	N.pl3	1	RES1	0.000	
7	  O2	-15.495	40.598	-6.745	O.3	1	RES1	0.000	
8	  C3	-15.190	36.021	-3.262	C.3	1	RES1	0.000	
9	  N3	-11.096	42.423	-2.327	N.pl3	1	RES1	0.000	
10	  C4	-16.223	34.979	-2.911	C.3	1	RES1	0.000	
11	  N4	-10.745	43.991	-4.092	N.2	1	RES1	0.000	
12	  C5	-16.650	32.712	-2.200	C.3	1	RES1	0.000	
13	  N5	-12.096	43.981	-6.084	N.2	1	RES1	0.000	
14	  C6	-16.037	31.455	-1.522	C.3	1	RES1	0.000	
15	  C7	-15.556	31.771	-0.109	C.3	1	RES1	0.000	
16	  C8	-14.628	32.965	-0.124	C.3	1	RES1	0.000	
17	  C9	-15.239	34.183	-0.845	C.3	1	RES1	0.000	
18	 C10	-14.173	40.634	-4.736	C.2	1	RES1	0.000	
19	 C11	-13.162	41.159	-3.960	C.2	1	RES1	0.000	
20	 C12	-12.449	42.312	-4.364	C.2	1	RES1	0.000	
21	 C13	-11.434	42.919	-3.596	C.2	1	RES1	0.000	
22	 C14	-10.517	43.066	-1.215	C.2	1	RES1	0.000	
23	 C15	-9.768	42.351	-0.295	C.2	1	RES1	0.000	
24	 C16	-9.155	42.922	0.803	C.2	1	RES1	0.000	
25	 C17	-9.296	44.296	1.036	C.2	1	RES1	0.000	
26	 C18	-10.026	45.058	0.132	C.2	1	RES1	0.000	
27	 C19	-10.633	44.469	-0.978	C.2	1	RES1	0.000	
28	 C20	-11.139	44.502	-5.291	C.2	1	RES1	0.000	
29	 C21	-12.761	42.909	-5.607	C.2	1	RES1	0.000	
30	 C22	-13.753	42.344	-6.394	C.2	1	RES1	0.000	
31	 C23	-14.489	41.218	-5.986	C.2	1	RES1	0.000	
32	 C24	-15.805	41.191	-7.999	C.3	1	RES1	0.000	
33	  F1	-8.718	44.826	2.107	 F	1	RES1	0.000	
@<TRIPOS>BOND
1 1 26 1
2 2 5 1
3 2 6 1
4 3 10 1
5 3 12 1
6 3 17 1
7 2 4 2
8 5 8 1
9 7 31 1
10 7 32 1
11 8 10 1
12 12 14 1
13 14 15 1
14 15 16 1
15 16 17 1
16 6 18 1
17 18 19 ar
18 18 31 ar
19 19 20 ar
20 20 21 ar
21 20 29 ar
22 9 21 1
23 11 21 ar
24 9 22 1
25 22 23 ar
26 22 27 ar
27 23 24 ar
28 24 25 ar
29 25 26 ar
30 26 27 ar
31 11 28 ar
32 13 28 ar
33 13 29 ar
34 29 30 ar
35 30 31 ar
36 25 33 1
@<TRIPOS>SUBSTRUCTURE
1	RES1	1	GROUP	1 ****	RES
