# created with PyMOL 2.5.2
@<TRIPOS>MOLECULE
EGFR_4I24_TargetProtein
33 36 1                 
SMALL
USER_CHARGES
@<TRIPOS>ATOM
1	 CL1	-10.327	46.713	0.367	Cl	1	RES1	0.000	
2	  C1	-14.385	38.222	-3.951	C.2	1	RES1	0.000	
3	  N1	-15.731	33.831	-2.201	N.3	1	RES1	0.000	
4	  O1	-13.201	37.910	-3.803	O.2	1	RES1	0.000	
5	  C2	-15.496	37.260	-3.652	C.3	1	RES1	0.000	
6	  N2	-14.873	39.429	-4.383	N.pl3	1	RES1	0.000	
7	  O2	-15.446	40.577	-6.785	O.3	1	RES1	0.000	
8	  C3	-15.231	36.019	-3.246	C.3	1	RES1	0.000	
9	  N3	-11.063	42.422	-2.344	N.pl3	1	RES1	0.000	
10	  C4	-16.287	34.985	-2.939	C.3	1	RES1	0.000	
11	  N4	-10.846	44.080	-4.014	N.2	1	RES1	0.000	
12	  C5	-16.696	32.723	-2.175	C.3	1	RES1	0.000	
13	  N5	-12.124	44.032	-6.062	N.2	1	RES1	0.000	
14	  C6	-16.133	31.481	-1.480	C.3	1	RES1	0.000	
15	  C7	-15.733	31.826	-0.054	C.3	1	RES1	0.000	
16	  C8	-14.755	32.980	-0.052	C.3	1	RES1	0.000	
17	  C9	-15.368	34.188	-0.798	C.3	1	RES1	0.000	
18	 C10	-14.131	40.604	-4.792	C.2	1	RES1	0.000	
19	 C11	-13.177	41.189	-3.976	C.2	1	RES1	0.000	
20	 C12	-12.455	42.332	-4.365	C.2	1	RES1	0.000	
21	 C13	-11.453	42.962	-3.606	C.2	1	RES1	0.000	
22	 C14	-10.464	43.025	-1.217	C.2	1	RES1	0.000	
23	 C15	-9.675	42.322	-0.301	C.2	1	RES1	0.000	
24	 C16	-9.079	42.943	0.825	C.2	1	RES1	0.000	
25	 C17	-9.265	44.288	0.999	C.2	1	RES1	0.000	
26	 C18	-10.058	45.007	0.097	C.2	1	RES1	0.000	
27	 C19	-10.622	44.375	-0.983	C.2	1	RES1	0.000	
28	 C20	-11.214	44.557	-5.230	C.2	1	RES1	0.000	
29	 C21	-12.750	42.920	-5.616	C.2	1	RES1	0.000	
30	 C22	-13.749	42.330	-6.410	C.2	1	RES1	0.000	
31	 C23	-14.432	41.203	-6.008	C.2	1	RES1	0.000	
32	 C24	-15.783	41.201	-8.033	C.3	1	RES1	0.000	
33	  F1	-8.715	44.862	2.061	 F	1	RES1	0.000	
@<TRIPOS>BOND
1 1 26 1
2 2 5 1
3 2 6 1
4 3 10 1
5 3 12 1
6 3 17 1
7 2 4 2
8 5 8 1
9 7 31 1
10 7 32 1
11 8 10 1
12 12 14 1
13 14 15 1
14 15 16 1
15 16 17 1
16 6 18 1
17 18 19 ar
18 18 31 ar
19 19 20 ar
20 20 21 ar
21 20 29 ar
22 9 21 1
23 11 21 ar
24 9 22 1
25 22 23 ar
26 22 27 ar
27 23 24 ar
28 24 25 ar
29 25 26 ar
30 26 27 ar
31 11 28 ar
32 13 28 ar
33 13 29 ar
34 29 30 ar
35 30 31 ar
36 25 33 1
@<TRIPOS>SUBSTRUCTURE
1	RES1	1	GROUP	1 ****	RES
