# created with PyMOL 2.5.2
@<TRIPOS>MOLECULE
EGFR_4I24_TargetProtein
33 36 1                 
SMALL
USER_CHARGES
@<TRIPOS>ATOM
1	 CL1	-10.194	46.736	0.379	Cl	1	RES1	0.000	
2	  C1	-14.414	38.227	-4.027	C.2	1	RES1	0.000	
3	  N1	-15.617	33.830	-2.175	N.3	1	RES1	0.000	
4	  O1	-13.215	37.903	-3.962	O.2	1	RES1	0.000	
5	  C2	-15.513	37.264	-3.681	C.3	1	RES1	0.000	
6	  N2	-14.923	39.459	-4.385	N.pl3	1	RES1	0.000	
7	  O2	-15.492	40.596	-6.747	O.3	1	RES1	0.000	
8	  C3	-15.201	36.008	-3.276	C.3	1	RES1	0.000	
9	  N3	-11.088	42.405	-2.299	N.pl3	1	RES1	0.000	
10	  C4	-16.234	34.974	-2.893	C.3	1	RES1	0.000	
11	  N4	-10.772	44.010	-4.076	N.2	1	RES1	0.000	
12	  C5	-14.772	32.992	-3.069	C.3	1	RES1	0.000	
13	  N5	-12.096	43.988	-6.078	N.2	1	RES1	0.000	
14	  C6	-14.112	31.861	-2.307	C.3	1	RES1	0.000	
15	  C7	-15.158	31.002	-1.612	C.3	1	RES1	0.000	
16	  C8	-16.101	31.858	-0.756	C.3	1	RES1	0.000	
17	  C9	-16.684	33.015	-1.558	C.3	1	RES1	0.000	
18	 C10	-14.183	40.629	-4.751	C.2	1	RES1	0.000	
19	 C11	-13.166	41.156	-3.957	C.2	1	RES1	0.000	
20	 C12	-12.440	42.319	-4.354	C.2	1	RES1	0.000	
21	 C13	-11.419	42.935	-3.595	C.2	1	RES1	0.000	
22	 C14	-10.525	43.090	-1.192	C.2	1	RES1	0.000	
23	 C15	-9.760	42.322	-0.288	C.2	1	RES1	0.000	
24	 C16	-9.159	42.935	0.807	C.2	1	RES1	0.000	
25	 C17	-9.295	44.276	1.022	C.2	1	RES1	0.000	
26	 C18	-10.040	45.056	0.120	C.2	1	RES1	0.000	
27	 C19	-10.645	44.477	-0.986	C.2	1	RES1	0.000	
28	 C20	-11.136	44.471	-5.279	C.2	1	RES1	0.000	
29	 C21	-12.737	42.909	-5.598	C.2	1	RES1	0.000	
30	 C22	-13.751	42.347	-6.399	C.2	1	RES1	0.000	
31	 C23	-14.469	41.216	-5.996	C.2	1	RES1	0.000	
32	 C24	-15.830	41.211	-8.001	C.3	1	RES1	0.000	
33	  F1	-8.718	44.852	2.095	 F	1	RES1	0.000	
@<TRIPOS>BOND
1 1 26 1
2 2 5 1
3 2 6 1
4 3 10 1
5 3 12 1
6 3 17 1
7 2 4 2
8 5 8 1
9 7 31 1
10 7 32 1
11 8 10 1
12 12 14 1
13 14 15 1
14 15 16 1
15 16 17 1
16 6 18 1
17 18 19 ar
18 18 31 ar
19 19 20 ar
20 20 21 ar
21 20 29 ar
22 9 21 1
23 11 21 ar
24 9 22 1
25 22 23 ar
26 22 27 ar
27 23 24 ar
28 24 25 ar
29 25 26 ar
30 26 27 ar
31 11 28 ar
32 13 28 ar
33 13 29 ar
34 29 30 ar
35 30 31 ar
36 25 33 1
@<TRIPOS>SUBSTRUCTURE
1	RES1	1	GROUP	1 ****	RES
