# created with PyMOL 2.5.2
@<TRIPOS>MOLECULE
CDK6_2EUF_TargetProtein
33 37 1                 
SMALL
USER_CHARGES
@<TRIPOS>ATOM
1	  C1	34.723	27.625	59.510	C.3	1	RES1	0.000	
2	  N1	31.374	22.966	63.572	N.2	1	RES1	0.000	
3	  O1	32.675	28.714	59.990	O.2	1	RES1	0.000	
4	  C2	33.291	27.665	59.981	C.2	1	RES1	0.000	
5	  N2	30.246	20.996	62.757	N.pl3	1	RES1	0.000	
6	  C3	32.646	26.381	60.370	C.2	1	RES1	0.000	
7	  N3	27.896	16.922	59.626	N.pl3	1	RES1	0.000	
8	  C4	32.608	25.997	61.651	C.2	1	RES1	0.000	
9	  N4	26.533	14.691	58.345	N.3	1	RES1	0.000	
10	  C5	33.114	26.838	62.803	C.3	1	RES1	0.000	
11	  C6	31.987	24.696	61.978	C.2	1	RES1	0.000	
12	  C7	31.918	24.130	63.272	C.2	1	RES1	0.000	
13	  O7	32.149	25.921	58.117	O.2	1	RES1	0.000	
14	  C8	30.845	22.244	62.554	C.2	1	RES1	0.000	
15	  C9	29.681	20.040	61.935	C.2	1	RES1	0.000	
16	  N9	29.418	18.837	62.479	N.2	1	RES1	0.000	
17	 C10	29.363	20.279	60.600	C.2	1	RES1	0.000	
18	 N10	30.853	22.698	61.275	N.2	1	RES1	0.000	
19	 C11	28.798	19.262	59.813	C.2	1	RES1	0.000	
20	 N11	31.444	24.333	59.630	N.2	1	RES1	0.000	
21	 C12	28.496	17.976	60.384	C.2	1	RES1	0.000	
22	 C13	28.552	15.603	59.526	C.3	1	RES1	0.000	
23	 C14	27.992	14.752	58.346	C.3	1	RES1	0.000	
24	 C34	25.962	16.039	58.301	C.3	1	RES1	0.000	
25	 C35	26.423	16.919	59.486	C.3	1	RES1	0.000	
26	 C36	28.866	17.874	61.728	C.2	1	RES1	0.000	
27	 C37	31.425	23.893	60.985	C.2	1	RES1	0.000	
28	 C38	30.824	23.481	58.566	C.3	1	RES1	0.000	
29	 C39	29.936	24.183	57.562	C.3	1	RES1	0.000	
30	 C40	28.647	23.329	57.510	C.3	1	RES1	0.000	
31	 C41	29.076	21.988	58.008	C.3	1	RES1	0.000	
32	 C42	30.075	22.273	59.102	C.3	1	RES1	0.000	
33	 C43	32.065	25.521	59.261	C.2	1	RES1	0.000	
@<TRIPOS>BOND
1 1 4 1
2 2 12 ar
3 2 14 ar
4 3 4 2
5 4 6 1
6 5 14 1
7 5 15 1
8 6 8 ar
9 6 33 ar
10 7 25 1
11 8 10 1
12 8 11 ar
13 11 12 ar
14 15 16 ar
15 15 17 ar
16 17 19 ar
17 14 18 ar
18 18 27 ar
19 19 21 ar
20 20 27 ar
21 20 28 1
22 20 33 ar
23 7 21 1
24 21 26 ar
25 7 22 1
26 22 23 1
27 9 23 1
28 9 24 1
29 24 25 1
30 16 26 ar
31 11 27 ar
32 28 29 1
33 28 32 1
34 29 30 1
35 30 31 1
36 31 32 1
37 13 33 2
@<TRIPOS>SUBSTRUCTURE
1	RES1	1	GROUP	1 ****	RES
