# created with PyMOL 2.5.2
@<TRIPOS>MOLECULE
EGFR_4I24_TargetProtein
33 36 1                 
SMALL
USER_CHARGES
@<TRIPOS>ATOM
1	 CL1	-10.228	46.823	0.415	Cl	1	RES1	0.000	
2	  C1	-14.395	38.179	-4.078	C.2	1	RES1	0.000	
3	  N1	-15.754	33.816	-2.172	N.3	1	RES1	0.000	
4	  O1	-13.254	37.825	-3.957	O.2	1	RES1	0.000	
5	  C2	-15.499	37.184	-3.764	C.3	1	RES1	0.000	
6	  N2	-14.917	39.387	-4.452	N.pl3	1	RES1	0.000	
7	  O2	-15.523	40.625	-6.760	O.3	1	RES1	0.000	
8	  C3	-15.225	35.956	-3.288	C.3	1	RES1	0.000	
9	  N3	-11.056	42.451	-2.280	N.pl3	1	RES1	0.000	
10	  C4	-16.283	34.934	-2.972	C.3	1	RES1	0.000	
11	  N4	-10.736	43.915	-4.034	N.2	1	RES1	0.000	
12	  C5	-16.706	32.690	-2.185	C.3	1	RES1	0.000	
13	  N5	-12.101	43.999	-6.005	N.2	1	RES1	0.000	
14	  C6	-16.176	31.495	-1.384	C.3	1	RES1	0.000	
15	  C7	-15.826	31.876	0.018	C.3	1	RES1	0.000	
16	  C8	-14.894	33.077	0.049	C.3	1	RES1	0.000	
17	  C9	-15.455	34.229	-0.772	C.3	1	RES1	0.000	
18	 C10	-14.172	40.566	-4.802	C.2	1	RES1	0.000	
19	 C11	-13.158	41.090	-3.983	C.2	1	RES1	0.000	
20	 C12	-12.474	42.274	-4.348	C.2	1	RES1	0.000	
21	 C13	-11.442	42.879	-3.572	C.2	1	RES1	0.000	
22	 C14	-10.452	43.131	-1.198	C.2	1	RES1	0.000	
23	 C15	-9.683	42.420	-0.281	C.2	1	RES1	0.000	
24	 C16	-9.087	43.003	0.823	C.2	1	RES1	0.000	
25	 C17	-9.272	44.360	1.036	C.2	1	RES1	0.000	
26	 C18	-10.008	45.139	0.136	C.2	1	RES1	0.000	
27	 C19	-10.601	44.521	-0.976	C.2	1	RES1	0.000	
28	 C20	-11.122	44.407	-5.234	C.2	1	RES1	0.000	
29	 C21	-12.777	42.888	-5.561	C.2	1	RES1	0.000	
30	 C22	-13.779	42.383	-6.370	C.2	1	RES1	0.000	
31	 C23	-14.478	41.218	-5.997	C.2	1	RES1	0.000	
32	 C24	-15.865	41.296	-7.985	C.3	1	RES1	0.000	
33	  F1	-8.690	44.934	2.092	 F	1	RES1	0.000	
@<TRIPOS>BOND
1 1 26 1
2 2 5 1
3 2 6 1
4 3 10 1
5 3 12 1
6 3 17 1
7 2 4 2
8 5 8 1
9 7 31 1
10 7 32 1
11 8 10 1
12 12 14 1
13 14 15 1
14 15 16 1
15 16 17 1
16 6 18 1
17 18 19 ar
18 18 31 ar
19 19 20 ar
20 20 21 ar
21 20 29 ar
22 9 21 1
23 11 21 ar
24 9 22 1
25 22 23 ar
26 22 27 ar
27 23 24 ar
28 24 25 ar
29 25 26 ar
30 26 27 ar
31 11 28 ar
32 13 28 ar
33 13 29 ar
34 29 30 ar
35 30 31 ar
36 25 33 1
@<TRIPOS>SUBSTRUCTURE
1	RES1	1	GROUP	1 ****	RES
