# created with PyMOL 2.5.2
@<TRIPOS>MOLECULE
BRD4_5UVY_TargetProtein
24 27 1                 
SMALL
USER_CHARGES
@<TRIPOS>ATOM
1	  C1	17.101	9.115	15.355	C.3	1	RES1	0.000	
2	  N1	16.776	10.228	16.240	N.2	1	RES1	0.000	
3	  O1	15.072	10.918	20.812	O.3	1	RES1	0.000	
4	  C2	15.629	10.145	17.035	C.2	1	RES1	0.000	
5	  N2	17.760	13.604	17.440	N.2	1	RES1	0.000	
6	  C3	15.188	11.111	17.853	C.2	1	RES1	0.000	
7	  C4	13.943	10.894	18.601	C.2	1	RES1	0.000	
8	  C5	12.735	10.752	17.922	C.2	1	RES1	0.000	
9	  C6	11.552	10.596	18.600	C.2	1	RES1	0.000	
10	  C7	11.529	10.542	19.941	C.2	1	RES1	0.000	
11	  O7	18.638	11.498	15.594	O.2	1	RES1	0.000	
12	  C8	12.727	10.671	20.688	C.2	1	RES1	0.000	
13	  C9	13.925	10.792	20.019	C.2	1	RES1	0.000	
14	 C10	14.899	10.780	22.187	C.2	1	RES1	0.000	
15	 C11	14.459	11.826	23.009	C.2	1	RES1	0.000	
16	 C12	14.311	11.614	24.382	C.2	1	RES1	0.000	
17	 C13	14.618	10.383	24.941	C.2	1	RES1	0.000	
18	 C14	15.101	9.332	24.111	C.2	1	RES1	0.000	
19	 C15	15.226	9.547	22.729	C.2	1	RES1	0.000	
20	 C16	16.023	12.299	17.935	C.2	1	RES1	0.000	
21	 C17	17.134	12.385	17.189	C.2	1	RES1	0.000	
22	 C18	16.976	14.281	18.365	C.2	1	RES1	0.000	
23	 C37	15.899	13.487	18.699	C.2	1	RES1	0.000	
24	 C38	17.596	11.372	16.279	C.2	1	RES1	0.000	
@<TRIPOS>BOND
1 1 2 1
2 2 4 ar
3 2 24 ar
4 3 13 1
5 3 14 1
6 4 6 ar
7 6 7 1
8 7 8 ar
9 7 13 ar
10 8 9 ar
11 9 10 ar
12 10 12 ar
13 12 13 ar
14 14 15 ar
15 14 19 ar
16 15 16 ar
17 16 17 ar
18 17 18 ar
19 18 19 ar
20 6 20 ar
21 20 21 ar
22 20 23 ar
23 5 21 ar
24 21 24 ar
25 5 22 ar
26 22 23 ar
27 11 24 2
@<TRIPOS>SUBSTRUCTURE
1	RES1	1	GROUP	1 ****	RES
