# created with PyMOL 2.5.2
@<TRIPOS>MOLECULE
BRD4_5UVY_TargetProtein
24 27 1                 
SMALL
USER_CHARGES
@<TRIPOS>ATOM
1	  C1	17.113	9.127	15.393	C.3	1	RES1	0.000	
2	  N1	16.759	10.251	16.234	N.2	1	RES1	0.000	
3	  O1	15.079	11.000	20.782	O.3	1	RES1	0.000	
4	  C2	15.584	10.157	16.988	C.2	1	RES1	0.000	
5	  N2	17.753	13.576	17.507	N.2	1	RES1	0.000	
6	  C3	15.172	11.131	17.816	C.2	1	RES1	0.000	
7	  C4	13.924	10.882	18.582	C.2	1	RES1	0.000	
8	  C5	12.724	10.751	17.888	C.2	1	RES1	0.000	
9	  C6	11.535	10.547	18.610	C.2	1	RES1	0.000	
10	  C7	11.545	10.496	20.000	C.2	1	RES1	0.000	
11	  O7	18.655	11.463	15.684	O.2	1	RES1	0.000	
12	  C8	12.732	10.646	20.682	C.2	1	RES1	0.000	
13	  C9	13.918	10.826	19.985	C.2	1	RES1	0.000	
14	 C10	14.909	10.829	22.181	C.2	1	RES1	0.000	
15	 C11	14.411	11.847	23.012	C.2	1	RES1	0.000	
16	 C12	14.284	11.580	24.371	C.2	1	RES1	0.000	
17	 C13	14.651	10.329	24.900	C.2	1	RES1	0.000	
18	 C14	15.162	9.371	24.069	C.2	1	RES1	0.000	
19	 C15	15.315	9.598	22.682	C.2	1	RES1	0.000	
20	 C16	16.003	12.291	17.932	C.2	1	RES1	0.000	
21	 C17	17.140	12.374	17.219	C.2	1	RES1	0.000	
22	 C18	16.969	14.264	18.408	C.2	1	RES1	0.000	
23	 C39	15.868	13.475	18.707	C.2	1	RES1	0.000	
24	 C40	17.609	11.361	16.296	C.2	1	RES1	0.000	
@<TRIPOS>BOND
1 1 2 1
2 2 4 ar
3 2 24 ar
4 3 13 1
5 3 14 1
6 4 6 ar
7 6 7 1
8 7 8 ar
9 7 13 ar
10 8 9 ar
11 9 10 ar
12 10 12 ar
13 12 13 ar
14 14 15 ar
15 14 19 ar
16 15 16 ar
17 16 17 ar
18 17 18 ar
19 18 19 ar
20 6 20 ar
21 20 21 ar
22 20 23 ar
23 5 21 ar
24 21 24 ar
25 5 22 ar
26 22 23 ar
27 11 24 2
@<TRIPOS>SUBSTRUCTURE
1	RES1	1	GROUP	1 ****	RES
