# created with PyMOL 2.5.2
@<TRIPOS>MOLECULE
BRD4_5UVY_TargetProtein
24 27 1                 
SMALL
USER_CHARGES
@<TRIPOS>ATOM
1	  C1	17.106	9.071	15.457	C.3	1	RES1	0.000	
2	  N1	16.751	10.245	16.287	N.2	1	RES1	0.000	
3	  O1	15.098	10.993	20.736	O.3	1	RES1	0.000	
4	  C2	15.587	10.139	17.038	C.2	1	RES1	0.000	
5	  N2	17.732	13.591	17.501	N.2	1	RES1	0.000	
6	  C3	15.187	11.145	17.866	C.2	1	RES1	0.000	
7	  C4	13.926	10.929	18.602	C.2	1	RES1	0.000	
8	  C5	12.722	10.806	17.894	C.2	1	RES1	0.000	
9	  C6	11.515	10.589	18.589	C.2	1	RES1	0.000	
10	  C7	11.502	10.511	19.972	C.2	1	RES1	0.000	
11	  C8	12.677	10.637	20.676	C.2	1	RES1	0.000	
12	  O8	18.666	11.427	15.706	O.2	1	RES1	0.000	
13	  C9	13.887	10.820	20.016	C.2	1	RES1	0.000	
14	 C10	14.977	10.833	22.141	C.2	1	RES1	0.000	
15	 C11	14.526	11.876	22.993	C.2	1	RES1	0.000	
16	 C12	14.394	11.595	24.376	C.2	1	RES1	0.000	
17	 C13	14.677	10.318	24.841	C.2	1	RES1	0.000	
18	 C14	15.095	9.289	23.985	C.2	1	RES1	0.000	
19	 C15	15.230	9.562	22.654	C.2	1	RES1	0.000	
20	 C16	15.977	12.309	17.940	C.2	1	RES1	0.000	
21	 C17	17.138	12.374	17.236	C.2	1	RES1	0.000	
22	 C18	16.970	14.279	18.401	C.2	1	RES1	0.000	
23	 C42	15.853	13.498	18.700	C.2	1	RES1	0.000	
24	 C43	17.621	11.339	16.321	C.2	1	RES1	0.000	
@<TRIPOS>BOND
1 1 2 1
2 2 4 ar
3 2 24 ar
4 3 13 1
5 3 14 1
6 4 6 ar
7 6 7 1
8 7 8 ar
9 7 13 ar
10 8 9 ar
11 9 10 ar
12 10 11 ar
13 11 13 ar
14 14 15 ar
15 14 19 ar
16 15 16 ar
17 16 17 ar
18 17 18 ar
19 18 19 ar
20 6 20 ar
21 20 21 ar
22 20 23 ar
23 5 21 ar
24 21 24 ar
25 5 22 ar
26 22 23 ar
27 12 24 2
@<TRIPOS>SUBSTRUCTURE
1	RES1	1	GROUP	1 ****	RES
