# created with PyMOL 2.5.2
@<TRIPOS>MOLECULE
BRD4_5UVY_TargetProtein
24 27 1                 
SMALL
USER_CHARGES
@<TRIPOS>ATOM
1	  C1	17.133	9.113	15.400	C.3	1	RES1	0.000	
2	  N1	16.777	10.240	16.270	N.2	1	RES1	0.000	
3	  O1	15.053	10.967	20.776	O.3	1	RES1	0.000	
4	  C2	15.592	10.149	17.003	C.2	1	RES1	0.000	
5	  N2	17.718	13.577	17.493	N.2	1	RES1	0.000	
6	  C3	15.188	11.135	17.816	C.2	1	RES1	0.000	
7	  C4	13.943	10.906	18.588	C.2	1	RES1	0.000	
8	  C5	12.724	10.753	17.881	C.2	1	RES1	0.000	
9	  C6	11.539	10.573	18.579	C.2	1	RES1	0.000	
10	  C7	11.519	10.527	19.978	C.2	1	RES1	0.000	
11	  C8	12.710	10.634	20.697	C.2	1	RES1	0.000	
12	  O8	18.667	11.449	15.696	O.2	1	RES1	0.000	
13	  C9	13.914	10.814	19.995	C.2	1	RES1	0.000	
14	 C10	14.893	10.789	22.177	C.2	1	RES1	0.000	
15	 C11	14.404	11.831	23.004	C.2	1	RES1	0.000	
16	 C12	14.270	11.577	24.370	C.2	1	RES1	0.000	
17	 C13	14.701	10.349	24.896	C.2	1	RES1	0.000	
18	 C14	15.212	9.367	24.062	C.2	1	RES1	0.000	
19	 C15	15.325	9.584	22.720	C.2	1	RES1	0.000	
20	 C16	15.984	12.307	17.935	C.2	1	RES1	0.000	
21	 C17	17.135	12.386	17.197	C.2	1	RES1	0.000	
22	 C18	16.953	14.274	18.401	C.2	1	RES1	0.000	
23	 C43	15.845	13.504	18.669	C.2	1	RES1	0.000	
24	 C44	17.616	11.365	16.321	C.2	1	RES1	0.000	
@<TRIPOS>BOND
1 1 2 1
2 2 4 ar
3 2 24 ar
4 3 13 1
5 3 14 1
6 4 6 ar
7 6 7 1
8 7 8 ar
9 7 13 ar
10 8 9 ar
11 9 10 ar
12 10 11 ar
13 11 13 ar
14 14 15 ar
15 14 19 ar
16 15 16 ar
17 16 17 ar
18 17 18 ar
19 18 19 ar
20 6 20 ar
21 20 21 ar
22 20 23 ar
23 5 21 ar
24 21 24 ar
25 5 22 ar
26 22 23 ar
27 12 24 2
@<TRIPOS>SUBSTRUCTURE
1	RES1	1	GROUP	1 ****	RES
