# created with PyMOL 2.5.2
@<TRIPOS>MOLECULE
BRD4_5UVY_TargetProtein
24 27 1                 
SMALL
USER_CHARGES
@<TRIPOS>ATOM
1	  C1	17.102	9.123	15.356	C.3	1	RES1	0.000	
2	  N1	16.777	10.237	16.238	N.2	1	RES1	0.000	
3	  O1	15.078	10.970	20.807	O.3	1	RES1	0.000	
4	  C2	15.631	10.137	17.031	C.2	1	RES1	0.000	
5	  N2	17.703	13.608	17.441	N.2	1	RES1	0.000	
6	  C3	15.210	11.118	17.852	C.2	1	RES1	0.000	
7	  C4	13.961	10.891	18.610	C.2	1	RES1	0.000	
8	  C5	12.748	10.747	17.917	C.2	1	RES1	0.000	
9	  C6	11.552	10.571	18.586	C.2	1	RES1	0.000	
10	  C7	11.518	10.533	19.972	C.2	1	RES1	0.000	
11	  C8	12.712	10.668	20.691	C.2	1	RES1	0.000	
12	  O8	18.625	11.501	15.599	O.2	1	RES1	0.000	
13	  C9	13.928	10.818	20.021	C.2	1	RES1	0.000	
14	 C10	14.895	10.817	22.198	C.2	1	RES1	0.000	
15	 C11	14.425	11.822	23.052	C.2	1	RES1	0.000	
16	 C12	14.266	11.566	24.394	C.2	1	RES1	0.000	
17	 C13	14.628	10.346	24.907	C.2	1	RES1	0.000	
18	 C14	15.114	9.340	24.082	C.2	1	RES1	0.000	
19	 C15	15.281	9.577	22.710	C.2	1	RES1	0.000	
20	 C16	16.018	12.301	17.937	C.2	1	RES1	0.000	
21	 C17	17.153	12.366	17.167	C.2	1	RES1	0.000	
22	 C18	16.975	14.263	18.373	C.2	1	RES1	0.000	
23	 C44	15.907	13.486	18.709	C.2	1	RES1	0.000	
24	 C45	17.609	11.367	16.275	C.2	1	RES1	0.000	
@<TRIPOS>BOND
1 1 2 1
2 2 4 ar
3 2 24 ar
4 3 13 1
5 3 14 1
6 4 6 ar
7 6 7 1
8 7 8 ar
9 7 13 ar
10 8 9 ar
11 9 10 ar
12 10 11 ar
13 11 13 ar
14 14 15 ar
15 14 19 ar
16 15 16 ar
17 16 17 ar
18 17 18 ar
19 18 19 ar
20 6 20 ar
21 20 21 ar
22 20 23 ar
23 5 21 ar
24 21 24 ar
25 5 22 ar
26 22 23 ar
27 12 24 2
@<TRIPOS>SUBSTRUCTURE
1	RES1	1	GROUP	1 ****	RES
