# created with PyMOL 2.5.2
@<TRIPOS>MOLECULE
BRD4_5UVY_TargetProtein
24 27 1                 
SMALL
USER_CHARGES
@<TRIPOS>ATOM
1	  C1	17.147	9.113	15.394	C.3	1	RES1	0.000	
2	  N1	16.769	10.221	16.265	N.2	1	RES1	0.000	
3	  O1	15.040	10.945	20.808	O.3	1	RES1	0.000	
4	  C2	15.627	10.135	17.036	C.2	1	RES1	0.000	
5	  N2	17.691	13.604	17.430	N.2	1	RES1	0.000	
6	  C3	15.217	11.101	17.865	C.2	1	RES1	0.000	
7	  C4	13.982	10.885	18.601	C.2	1	RES1	0.000	
8	  C5	12.762	10.759	17.884	C.2	1	RES1	0.000	
9	  C6	11.545	10.613	18.544	C.2	1	RES1	0.000	
10	  C7	11.496	10.579	19.922	C.2	1	RES1	0.000	
11	  C8	12.668	10.694	20.683	C.2	1	RES1	0.000	
12	  O8	18.636	11.500	15.596	O.2	1	RES1	0.000	
13	  C9	13.896	10.829	20.027	C.2	1	RES1	0.000	
14	 C10	14.888	10.792	22.188	C.2	1	RES1	0.000	
15	 C11	14.456	11.824	23.055	C.2	1	RES1	0.000	
16	 C12	14.322	11.569	24.424	C.2	1	RES1	0.000	
17	 C13	14.673	10.321	24.932	C.2	1	RES1	0.000	
18	 C14	15.151	9.335	24.093	C.2	1	RES1	0.000	
19	 C15	15.281	9.557	22.731	C.2	1	RES1	0.000	
20	 C16	16.012	12.281	17.946	C.2	1	RES1	0.000	
21	 C17	17.137	12.394	17.176	C.2	1	RES1	0.000	
22	 C18	16.938	14.276	18.350	C.2	1	RES1	0.000	
23	 C45	15.878	13.470	18.696	C.2	1	RES1	0.000	
24	 C46	17.606	11.372	16.284	C.2	1	RES1	0.000	
@<TRIPOS>BOND
1 1 2 1
2 2 4 ar
3 2 24 ar
4 3 13 1
5 3 14 1
6 4 6 ar
7 6 7 1
8 7 8 ar
9 7 13 ar
10 8 9 ar
11 9 10 ar
12 10 11 ar
13 11 13 ar
14 14 15 ar
15 14 19 ar
16 15 16 ar
17 16 17 ar
18 17 18 ar
19 18 19 ar
20 6 20 ar
21 20 21 ar
22 20 23 ar
23 5 21 ar
24 21 24 ar
25 5 22 ar
26 22 23 ar
27 12 24 2
@<TRIPOS>SUBSTRUCTURE
1	RES1	1	GROUP	1 ****	RES
