# created with PyMOL 2.5.2
@<TRIPOS>MOLECULE
BRD4_5UVY_TargetProtein
27 30 1                 
SMALL
USER_CHARGES
@<TRIPOS>ATOM
1	  C1	9.157	11.023	18.116	C.3	1	RES1	0.000	
2	  N1	16.776	10.199	16.304	N.2	1	RES1	0.000	
3	  O1	15.066	10.991	20.840	O.3	1	RES1	0.000	
4	  C2	10.286	10.409	17.763	C.3	1	RES1	0.000	
5	  O2	18.619	11.457	15.611	O.2	1	RES1	0.000	
6	  C3	10.339	9.525	16.550	C.3	1	RES1	0.000	
7	  C4	11.538	10.592	18.533	C.2	1	RES1	0.000	
8	  C5	11.533	10.514	19.949	C.2	1	RES1	0.000	
9	  C6	12.686	10.663	20.697	C.2	1	RES1	0.000	
10	  C7	13.914	10.865	20.020	C.2	1	RES1	0.000	
11	  N7	17.730	13.648	17.359	N.2	1	RES1	0.000	
12	  C8	14.900	10.786	22.230	C.2	1	RES1	0.000	
13	  C9	15.267	9.532	22.696	C.2	1	RES1	0.000	
14	 C10	15.124	9.259	24.078	C.2	1	RES1	0.000	
15	 C11	14.645	10.244	24.941	C.2	1	RES1	0.000	
16	 C12	14.292	11.505	24.453	C.2	1	RES1	0.000	
17	 C13	14.426	11.798	23.080	C.2	1	RES1	0.000	
18	 C14	13.972	10.947	18.620	C.2	1	RES1	0.000	
19	 C15	15.211	11.163	17.877	C.2	1	RES1	0.000	
20	 C16	15.608	10.151	17.077	C.2	1	RES1	0.000	
21	 C17	17.130	9.066	15.487	C.3	1	RES1	0.000	
22	 C18	17.620	11.345	16.283	C.2	1	RES1	0.000	
23	 C19	17.144	12.404	17.122	C.2	1	RES1	0.000	
24	 C20	16.031	12.357	17.919	C.2	1	RES1	0.000	
25	 C21	15.878	13.570	18.609	C.2	1	RES1	0.000	
26	 C22	16.954	14.343	18.230	C.2	1	RES1	0.000	
27	 C49	12.754	10.771	17.911	C.2	1	RES1	0.000	
@<TRIPOS>BOND
1 1 4 1
2 2 20 ar
3 2 21 1
4 2 22 ar
5 3 10 1
6 3 12 1
7 4 6 1
8 4 7 1
9 7 8 ar
10 7 27 ar
11 8 9 ar
12 9 10 ar
13 12 13 ar
14 13 14 ar
15 14 15 ar
16 15 16 ar
17 16 17 ar
18 12 17 ar
19 10 18 ar
20 18 19 1
21 18 27 ar
22 19 20 ar
23 19 24 ar
24 5 22 2
25 22 23 ar
26 11 23 ar
27 23 24 ar
28 24 25 ar
29 25 26 ar
30 11 26 ar
@<TRIPOS>SUBSTRUCTURE
1	RES1	1	GROUP	1 ****	RES
