# created with PyMOL 2.5.2
@<TRIPOS>MOLECULE
BRD4_5UVY_TargetProtein
28 31 1                 
SMALL
USER_CHARGES
@<TRIPOS>ATOM
1	  C1	17.129	9.045	15.524	C.3	1	RES1	0.000	
2	  N1	16.785	10.185	16.351	N.2	1	RES1	0.000	
3	  O1	10.492	10.857	15.923	O.3	1	RES1	0.000	
4	  C2	15.552	10.194	16.992	C.2	1	RES1	0.000	
5	  N2	17.796	13.493	17.611	N.2	1	RES1	0.000	
6	  O2	14.744	11.012	20.721	O.3	1	RES1	0.000	
7	  C3	15.133	11.175	17.804	C.2	1	RES1	0.000	
8	  C4	13.829	11.031	18.437	C.2	1	RES1	0.000	
9	  C5	12.653	10.953	17.650	C.2	1	RES1	0.000	
10	  C6	11.366	10.762	18.193	C.2	1	RES1	0.000	
11	  C7	10.124	10.696	17.288	C.3	1	RES1	0.000	
12	  C8	9.451	9.318	17.444	C.3	1	RES1	0.000	
13	  C9	9.129	11.814	17.648	C.3	1	RES1	0.000	
14	  O9	18.773	11.344	15.907	O.2	1	RES1	0.000	
15	 C10	11.278	10.672	19.596	C.2	1	RES1	0.000	
16	 C11	12.398	10.766	20.410	C.2	1	RES1	0.000	
17	 C12	13.665	10.971	19.857	C.2	1	RES1	0.000	
18	 C13	14.430	10.905	22.083	C.2	1	RES1	0.000	
19	 C14	14.086	11.991	22.905	C.2	1	RES1	0.000	
20	 C15	13.773	11.728	24.264	C.2	1	RES1	0.000	
21	 C16	13.847	10.442	24.777	C.2	1	RES1	0.000	
22	 C17	14.170	9.381	23.958	C.2	1	RES1	0.000	
23	 C18	14.471	9.602	22.619	C.2	1	RES1	0.000	
24	 C19	15.981	12.316	17.946	C.2	1	RES1	0.000	
25	 C20	17.195	12.330	17.286	C.2	1	RES1	0.000	
26	 C21	17.003	14.256	18.459	C.2	1	RES1	0.000	
27	 C48	15.867	13.529	18.680	C.2	1	RES1	0.000	
28	 C49	17.679	11.267	16.466	C.2	1	RES1	0.000	
@<TRIPOS>BOND
1 1 2 1
2 2 4 ar
3 2 28 ar
4 3 11 1
5 4 7 ar
6 5 25 ar
7 5 26 ar
8 7 8 1
9 8 9 ar
10 9 10 ar
11 10 11 1
12 11 12 1
13 11 13 1
14 10 15 ar
15 15 16 ar
16 16 17 ar
17 6 17 1
18 8 17 ar
19 6 18 1
20 18 19 ar
21 18 23 ar
22 19 20 ar
23 20 21 ar
24 21 22 ar
25 22 23 ar
26 7 24 ar
27 24 25 ar
28 24 27 ar
29 25 28 ar
30 26 27 ar
31 14 28 2
@<TRIPOS>SUBSTRUCTURE
1	RES1	1	GROUP	1 ****	RES
