# created with PyMOL 2.5.2
@<TRIPOS>MOLECULE
CDK2_6GUE_TargetProtein
26 28 1                 
SMALL
USER_CHARGES
@<TRIPOS>ATOM
1	  C1	-4.985	-19.064	19.189	C.3	1	RES1	0.000	
2	  N1	-7.080	-18.115	20.057	N.2	1	RES1	0.000	
3	  O1	-1.831	-25.243	25.222	O.2	1	RES1	0.000	
4	  S1	-2.466	-25.327	23.911	S.O2	1	RES1	0.000	
5	  C2	-6.202	-19.058	20.049	C.2	1	RES1	0.000	
6	  N2	-10.173	-22.308	23.800	N.2	1	RES1	0.000	
7	  O2	-2.472	-26.567	23.168	O.2	1	RES1	0.000	
8	  C3	-8.088	-18.519	20.899	C.2	1	RES1	0.000	
9	  N3	-8.109	-23.312	24.545	N.pl3	1	RES1	0.000	
10	  C4	-7.808	-19.774	21.436	C.2	1	RES1	0.000	
11	  C5	-8.670	-20.589	22.286	C.2	1	RES1	0.000	
12	  C6	-10.058	-20.509	22.214	C.2	1	RES1	0.000	
13	  C7	-10.783	-21.406	22.998	C.2	1	RES1	0.000	
14	  C8	-8.821	-22.368	23.780	C.2	1	RES1	0.000	
15	  C9	-6.778	-23.824	24.461	C.2	1	RES1	0.000	
16	 C10	-6.185	-24.648	25.399	C.2	1	RES1	0.000	
17	 N10	-8.078	-21.534	23.028	N.2	1	RES1	0.000	
18	 C11	-4.903	-25.150	25.222	C.2	1	RES1	0.000	
19	 N11	-6.575	-20.072	20.893	N.2	1	RES1	0.000	
20	 C12	-4.152	-24.752	24.085	C.2	1	RES1	0.000	
21	 C13	-1.707	-24.103	22.884	C.3	1	RES1	0.000	
22	 C39	-4.728	-23.895	23.171	C.2	1	RES1	0.000	
23	 C40	-6.023	-23.425	23.336	C.2	1	RES1	0.000	
24	 C41	-5.737	-21.256	21.286	C.3	1	RES1	0.000	
25	 C42	-4.377	-20.920	21.925	C.3	1	RES1	0.000	
26	 C43	-5.551	-22.211	20.108	C.3	1	RES1	0.000	
@<TRIPOS>BOND
1 1 5 1
2 2 5 ar
3 2 8 ar
4 3 4 2
5 4 7 2
6 4 20 1
7 4 21 1
8 6 13 ar
9 6 14 ar
10 8 10 ar
11 9 14 1
12 9 15 1
13 10 11 1
14 11 12 ar
15 12 13 ar
16 15 16 ar
17 16 18 ar
18 11 17 ar
19 14 17 ar
20 18 20 ar
21 5 19 ar
22 10 19 ar
23 19 24 1
24 20 22 ar
25 22 23 ar
26 15 23 ar
27 24 25 1
28 24 26 1
@<TRIPOS>SUBSTRUCTURE
1	RES1	1	GROUP	1 ****	RES
