# created with PyMOL 2.5.2
@<TRIPOS>MOLECULE
CDK6_2EUF_TargetProtein
33 37 1                 
SMALL
USER_CHARGES
@<TRIPOS>ATOM
1	  C1	34.482	27.602	59.359	C.3	1	RES1	0.000	
2	  N1	31.554	22.801	63.620	N.2	1	RES1	0.000	
3	  O1	32.488	28.642	60.183	O.2	1	RES1	0.000	
4	  C2	33.124	27.610	59.995	C.2	1	RES1	0.000	
5	  N2	30.245	20.904	62.894	N.pl3	1	RES1	0.000	
6	  C3	32.502	26.281	60.403	C.2	1	RES1	0.000	
7	  N3	27.798	16.852	59.814	N.pl3	1	RES1	0.000	
8	  C4	32.647	25.865	61.670	C.2	1	RES1	0.000	
9	  N4	26.453	14.572	58.579	N.3	1	RES1	0.000	
10	  C5	33.360	26.603	62.780	C.3	1	RES1	0.000	
11	  C6	32.033	24.552	62.022	C.2	1	RES1	0.000	
12	  C7	32.102	23.958	63.268	C.2	1	RES1	0.000	
13	  O7	31.632	26.001	58.268	O.2	1	RES1	0.000	
14	  C8	30.866	22.139	62.661	C.2	1	RES1	0.000	
15	  C9	29.619	19.940	62.082	C.2	1	RES1	0.000	
16	  N9	29.414	18.760	62.625	N.2	1	RES1	0.000	
17	 C10	29.259	20.195	60.735	C.2	1	RES1	0.000	
18	 N10	30.741	22.621	61.402	N.2	1	RES1	0.000	
19	 C11	28.641	19.208	60.000	C.2	1	RES1	0.000	
20	 N11	31.184	24.313	59.773	N.2	1	RES1	0.000	
21	 C12	28.425	17.915	60.556	C.2	1	RES1	0.000	
22	 C13	28.486	15.564	59.640	C.3	1	RES1	0.000	
23	 C14	27.914	14.734	58.485	C.3	1	RES1	0.000	
24	 C38	25.830	15.927	58.580	C.3	1	RES1	0.000	
25	 C39	26.302	16.805	59.730	C.3	1	RES1	0.000	
26	 C40	28.837	17.779	61.868	C.2	1	RES1	0.000	
27	 C41	31.324	23.832	61.101	C.2	1	RES1	0.000	
28	 C42	30.389	23.518	58.796	C.3	1	RES1	0.000	
29	 C43	31.240	22.810	57.708	C.3	1	RES1	0.000	
30	 C44	30.674	23.271	56.372	C.3	1	RES1	0.000	
31	 C45	29.243	23.622	56.676	C.3	1	RES1	0.000	
32	 C46	29.364	24.339	58.004	C.3	1	RES1	0.000	
33	 C47	31.729	25.532	59.377	C.2	1	RES1	0.000	
@<TRIPOS>BOND
1 1 4 1
2 2 12 ar
3 2 14 ar
4 3 4 2
5 4 6 1
6 5 14 1
7 5 15 1
8 6 8 ar
9 6 33 ar
10 7 25 1
11 8 10 1
12 8 11 ar
13 11 12 ar
14 15 16 ar
15 15 17 ar
16 17 19 ar
17 14 18 ar
18 18 27 ar
19 19 21 ar
20 20 27 ar
21 20 28 1
22 20 33 ar
23 7 21 1
24 21 26 ar
25 7 22 1
26 22 23 1
27 9 23 1
28 9 24 1
29 24 25 1
30 16 26 ar
31 11 27 ar
32 28 29 1
33 28 32 1
34 29 30 1
35 30 31 1
36 31 32 1
37 13 33 2
@<TRIPOS>SUBSTRUCTURE
1	RES1	1	GROUP	1 ****	RES
