# created with PyMOL 2.5.2
@<TRIPOS>MOLECULE
GSK_4ACD_TargetProtein
32 35 1                 
SMALL
USER_CHARGES
@<TRIPOS>ATOM
1	  C1	20.175	-18.421	6.383	C.2	1	RES1	0.000	
2	  N1	18.922	-18.479	5.715	N.pl3	1	RES1	0.000	
3	  O1	27.702	-17.736	11.993	O.2	1	RES1	0.000	
4	  S1	27.863	-18.468	10.738	S.O2	1	RES1	0.000	
5	  C2	22.365	-19.120	6.503	C.2	1	RES1	0.000	
6	  N2	21.195	-19.096	5.856	N.2	1	RES1	0.000	
7	  O2	28.913	-18.084	9.812	O.2	1	RES1	0.000	
8	  C3	22.576	-18.433	7.721	C.2	1	RES1	0.000	
9	  N3	28.047	-20.168	11.098	N.3	1	RES1	0.000	
10	  C4	23.852	-18.419	8.441	C.2	1	RES1	0.000	
11	  N4	29.214	-22.775	11.673	N.3	1	RES1	0.000	
12	  C5	25.064	-18.867	7.834	C.2	1	RES1	0.000	
13	  C6	26.285	-18.866	8.522	C.2	1	RES1	0.000	
14	  C7	26.278	-18.423	9.854	C.2	1	RES1	0.000	
15	  C8	28.675	-20.456	12.404	C.3	1	RES1	0.000	
16	  C9	28.583	-21.958	12.732	C.3	1	RES1	0.000	
17	 C10	29.099	-24.211	11.993	C.3	1	RES1	0.000	
18	 O10	18.183	-16.840	7.713	O.2	1	RES1	0.000	
19	 N12	21.553	-17.713	8.264	N.2	1	RES1	0.000	
20	 N13	19.663	-16.246	9.396	N.pl3	1	RES1	0.000	
21	 N14	16.789	-14.342	10.871	N.2	1	RES1	0.000	
22	 C36	28.570	-22.497	10.375	C.3	1	RES1	0.000	
23	 C37	28.688	-20.992	10.004	C.3	1	RES1	0.000	
24	 C38	25.127	-18.015	10.470	C.2	1	RES1	0.000	
25	 C39	23.937	-18.042	9.774	C.2	1	RES1	0.000	
26	 C40	20.338	-17.700	7.595	C.2	1	RES1	0.000	
27	 C41	19.280	-16.883	8.227	C.2	1	RES1	0.000	
28	 C42	18.871	-15.423	10.252	C.2	1	RES1	0.000	
29	 C43	19.504	-14.835	11.324	C.2	1	RES1	0.000	
30	 C44	18.775	-13.983	12.172	C.2	1	RES1	0.000	
31	 C45	17.452	-13.795	11.927	C.2	1	RES1	0.000	
32	 C46	17.510	-15.175	10.065	C.2	1	RES1	0.000	
@<TRIPOS>BOND
1 1 2 1
2 1 6 ar
3 1 26 ar
4 3 4 2
5 4 7 2
6 4 9 1
7 4 14 1
8 5 6 ar
9 5 8 ar
10 8 10 1
11 9 15 1
12 9 23 1
13 10 12 ar
14 11 16 1
15 12 13 ar
16 13 14 ar
17 15 16 1
18 11 17 1
19 18 27 2
20 8 19 ar
21 19 26 ar
22 20 27 1
23 20 28 1
24 21 31 ar
25 21 32 ar
26 11 22 1
27 22 23 1
28 14 24 ar
29 24 25 ar
30 10 25 ar
31 26 27 1
32 28 29 ar
33 28 32 ar
34 29 30 ar
35 30 31 ar
@<TRIPOS>SUBSTRUCTURE
1	RES1	1	GROUP	1 ****	RES
