# created with PyMOL 2.5.2
@<TRIPOS>MOLECULE
GSK_4ACD_TargetProtein
32 35 1                 
SMALL
USER_CHARGES
@<TRIPOS>ATOM
1	  C1	20.374	-18.842	6.683	C.2	1	RES1	0.000	
2	  N1	19.128	-19.026	6.069	N.pl3	1	RES1	0.000	
3	  O1	29.151	-17.715	9.796	O.2	1	RES1	0.000	
4	  S1	28.198	-18.138	10.823	S.O2	1	RES1	0.000	
5	  C2	22.587	-19.493	6.801	C.2	1	RES1	0.000	
6	  N2	21.388	-19.576	6.208	N.2	1	RES1	0.000	
7	  O2	27.946	-17.305	11.975	O.2	1	RES1	0.000	
8	  C3	22.828	-18.684	7.916	C.2	1	RES1	0.000	
9	  N3	28.609	-19.743	11.336	N.3	1	RES1	0.000	
10	  C4	24.134	-18.575	8.630	C.2	1	RES1	0.000	
11	  N4	27.580	-22.449	10.997	N.3	1	RES1	0.000	
12	  C5	25.348	-18.965	8.024	C.2	1	RES1	0.000	
13	  C6	26.540	-18.848	8.657	C.2	1	RES1	0.000	
14	  C7	26.594	-18.350	9.972	C.2	1	RES1	0.000	
15	  C8	27.770	-20.423	12.392	C.3	1	RES1	0.000	
16	  C9	26.835	-21.499	11.823	C.3	1	RES1	0.000	
17	  O9	18.387	-17.141	7.842	O.2	1	RES1	0.000	
18	 C10	26.667	-23.516	10.481	C.3	1	RES1	0.000	
19	 N11	21.808	-17.969	8.426	N.2	1	RES1	0.000	
20	 N12	19.869	-16.457	9.508	N.pl3	1	RES1	0.000	
21	 N13	17.002	-14.434	10.794	N.2	1	RES1	0.000	
22	 C32	28.270	-21.772	9.869	C.3	1	RES1	0.000	
23	 C33	29.220	-20.695	10.388	C.3	1	RES1	0.000	
24	 C34	25.423	-17.952	10.616	C.2	1	RES1	0.000	
25	 C35	24.198	-18.067	9.911	C.2	1	RES1	0.000	
26	 C36	20.584	-18.039	7.788	C.2	1	RES1	0.000	
27	 C37	19.505	-17.168	8.384	C.2	1	RES1	0.000	
28	 C38	19.087	-15.573	10.284	C.2	1	RES1	0.000	
29	 C39	19.702	-14.910	11.330	C.2	1	RES1	0.000	
30	 C40	18.955	-14.032	12.124	C.2	1	RES1	0.000	
31	 C41	17.628	-13.820	11.814	C.2	1	RES1	0.000	
32	 C42	17.726	-15.286	10.035	C.2	1	RES1	0.000	
@<TRIPOS>BOND
1 1 6 ar
2 1 26 ar
3 1 2 1
4 3 4 2
5 4 7 2
6 4 9 1
7 4 14 1
8 5 6 ar
9 5 8 ar
10 8 10 1
11 9 15 1
12 9 23 1
13 10 12 ar
14 11 16 1
15 12 13 ar
16 13 14 ar
17 15 16 1
18 11 18 1
19 8 19 ar
20 19 26 ar
21 20 27 1
22 20 28 1
23 21 31 ar
24 21 32 ar
25 11 22 1
26 22 23 1
27 14 24 ar
28 24 25 ar
29 10 25 ar
30 26 27 1
31 17 27 2
32 28 29 ar
33 28 32 ar
34 29 30 ar
35 30 31 ar
@<TRIPOS>SUBSTRUCTURE
1	RES1	1	GROUP	1 ****	RES
