# created with PyMOL 2.5.2
@<TRIPOS>MOLECULE
GSK_4ACD_TargetProtein
32 35 1                 
SMALL
USER_CHARGES
@<TRIPOS>ATOM
1	  C1	20.202	-18.516	6.462	C.2	1	RES1	0.000	
2	  N1	18.945	-18.600	5.828	N.pl3	1	RES1	0.000	
3	  O1	27.747	-17.566	11.935	O.2	1	RES1	0.000	
4	  S1	27.959	-18.313	10.703	S.O2	1	RES1	0.000	
5	  C2	22.394	-19.219	6.563	C.2	1	RES1	0.000	
6	  N2	21.198	-19.239	5.912	N.2	1	RES1	0.000	
7	  O2	28.963	-17.880	9.767	O.2	1	RES1	0.000	
8	  C3	22.621	-18.519	7.730	C.2	1	RES1	0.000	
9	  N3	28.305	-19.973	11.130	N.3	1	RES1	0.000	
10	  C4	23.918	-18.480	8.451	C.2	1	RES1	0.000	
11	  N4	28.422	-22.843	11.433	N.3	1	RES1	0.000	
12	  C5	25.135	-18.841	7.826	C.2	1	RES1	0.000	
13	  C6	26.338	-18.809	8.503	C.2	1	RES1	0.000	
14	  C7	26.389	-18.421	9.817	C.2	1	RES1	0.000	
15	  C8	27.254	-20.706	11.892	C.3	1	RES1	0.000	
16	  C9	27.847	-22.016	12.472	C.3	1	RES1	0.000	
17	 C10	28.969	-24.102	11.999	C.3	1	RES1	0.000	
18	 O10	18.213	-16.915	7.761	O.2	1	RES1	0.000	
19	 N11	21.612	-17.788	8.302	N.2	1	RES1	0.000	
20	 N12	19.758	-16.305	9.451	N.pl3	1	RES1	0.000	
21	 N13	16.910	-14.352	10.908	N.2	1	RES1	0.000	
22	 C34	29.444	-22.121	10.683	C.3	1	RES1	0.000	
23	 C35	28.886	-20.825	10.046	C.3	1	RES1	0.000	
24	 C36	25.206	-18.027	10.480	C.2	1	RES1	0.000	
25	 C37	24.008	-18.068	9.792	C.2	1	RES1	0.000	
26	 C38	20.395	-17.801	7.672	C.2	1	RES1	0.000	
27	 C39	19.332	-16.949	8.289	C.2	1	RES1	0.000	
28	 C40	18.987	-15.453	10.291	C.2	1	RES1	0.000	
29	 C41	19.614	-14.842	11.350	C.2	1	RES1	0.000	
30	 C42	18.903	-14.008	12.195	C.2	1	RES1	0.000	
31	 C43	17.555	-13.791	11.943	C.2	1	RES1	0.000	
32	 C44	17.612	-15.171	10.112	C.2	1	RES1	0.000	
@<TRIPOS>BOND
1 1 2 1
2 1 6 ar
3 1 26 ar
4 3 4 2
5 4 7 2
6 4 9 1
7 4 14 1
8 5 6 ar
9 5 8 ar
10 8 10 1
11 9 15 1
12 9 23 1
13 10 12 ar
14 11 16 1
15 12 13 ar
16 13 14 ar
17 15 16 1
18 11 17 1
19 18 27 2
20 8 19 ar
21 19 26 ar
22 20 27 1
23 20 28 1
24 21 31 ar
25 21 32 ar
26 11 22 1
27 22 23 1
28 14 24 ar
29 24 25 ar
30 10 25 ar
31 26 27 1
32 28 29 ar
33 28 32 ar
34 29 30 ar
35 30 31 ar
@<TRIPOS>SUBSTRUCTURE
1	RES1	1	GROUP	1 ****	RES
