# created with PyMOL 2.5.2
@<TRIPOS>MOLECULE
GSK_4ACD_TargetProtein
32 35 1                 
SMALL
USER_CHARGES
@<TRIPOS>ATOM
1	  C1	20.176	-18.473	6.417	C.2	1	RES1	0.000	
2	  N1	18.922	-18.532	5.768	N.pl3	1	RES1	0.000	
3	  O1	27.730	-17.652	11.988	O.2	1	RES1	0.000	
4	  S1	27.908	-18.409	10.747	S.O2	1	RES1	0.000	
5	  C2	22.355	-19.169	6.512	C.2	1	RES1	0.000	
6	  N2	21.176	-19.176	5.856	N.2	1	RES1	0.000	
7	  O2	28.936	-17.999	9.809	O.2	1	RES1	0.000	
8	  C3	22.591	-18.463	7.721	C.2	1	RES1	0.000	
9	  N3	28.122	-20.085	11.098	N.3	1	RES1	0.000	
10	  C4	23.880	-18.435	8.463	C.2	1	RES1	0.000	
11	  N4	29.041	-22.784	11.665	N.3	1	RES1	0.000	
12	  C5	25.077	-18.841	7.830	C.2	1	RES1	0.000	
13	  C6	26.312	-18.830	8.500	C.2	1	RES1	0.000	
14	  C7	26.340	-18.391	9.842	C.2	1	RES1	0.000	
15	  C8	28.548	-20.458	12.454	C.3	1	RES1	0.000	
16	  C9	28.332	-21.981	12.694	C.3	1	RES1	0.000	
17	 C10	28.805	-24.223	11.900	C.3	1	RES1	0.000	
18	 N11	21.567	-17.763	8.264	N.2	1	RES1	0.000	
19	 O11	18.221	-16.851	7.715	O.2	1	RES1	0.000	
20	 N12	19.690	-16.296	9.432	N.pl3	1	RES1	0.000	
21	 N13	16.820	-14.375	10.882	N.2	1	RES1	0.000	
22	 C36	28.581	-22.404	10.293	C.3	1	RES1	0.000	
23	 C37	28.791	-20.923	10.026	C.3	1	RES1	0.000	
24	 C38	25.167	-18.006	10.471	C.2	1	RES1	0.000	
25	 C39	23.955	-18.037	9.775	C.2	1	RES1	0.000	
26	 C40	20.389	-17.736	7.606	C.2	1	RES1	0.000	
27	 C41	19.287	-16.924	8.225	C.2	1	RES1	0.000	
28	 C42	18.927	-15.459	10.254	C.2	1	RES1	0.000	
29	 C43	19.522	-14.866	11.332	C.2	1	RES1	0.000	
30	 C44	18.828	-13.963	12.195	C.2	1	RES1	0.000	
31	 C45	17.480	-13.787	11.901	C.2	1	RES1	0.000	
32	 C46	17.567	-15.170	10.059	C.2	1	RES1	0.000	
@<TRIPOS>BOND
1 1 2 1
2 1 6 ar
3 1 26 ar
4 3 4 2
5 4 7 2
6 4 9 1
7 4 14 1
8 5 6 ar
9 5 8 ar
10 8 10 1
11 9 15 1
12 9 23 1
13 10 12 ar
14 11 16 1
15 12 13 ar
16 13 14 ar
17 15 16 1
18 11 17 1
19 8 18 ar
20 18 26 ar
21 19 27 2
22 20 27 1
23 20 28 1
24 21 31 ar
25 21 32 ar
26 11 22 1
27 22 23 1
28 14 24 ar
29 24 25 ar
30 10 25 ar
31 26 27 1
32 28 29 ar
33 28 32 ar
34 29 30 ar
35 30 31 ar
@<TRIPOS>SUBSTRUCTURE
1	RES1	1	GROUP	1 ****	RES
