# created with PyMOL 2.5.2
@<TRIPOS>MOLECULE
GSK_4ACD_TargetProtein
32 35 1                 
SMALL
USER_CHARGES
@<TRIPOS>ATOM
1	  C1	20.084	-18.414	6.387	C.2	1	RES1	0.000	
2	  N1	18.885	-18.300	5.680	N.pl3	1	RES1	0.000	
3	  O1	27.640	-17.818	11.882	O.2	1	RES1	0.000	
4	  S1	27.872	-18.485	10.599	S.O2	1	RES1	0.000	
5	  C2	22.267	-19.177	6.447	C.2	1	RES1	0.000	
6	  N2	21.057	-19.114	5.840	N.2	1	RES1	0.000	
7	  O2	28.905	-18.017	9.685	O.2	1	RES1	0.000	
8	  C3	22.533	-18.483	7.679	C.2	1	RES1	0.000	
9	  N3	28.131	-20.194	10.915	N.3	1	RES1	0.000	
10	  C4	23.815	-18.498	8.371	C.2	1	RES1	0.000	
11	  N4	29.167	-22.688	12.005	N.3	1	RES1	0.000	
12	  C5	25.029	-18.851	7.730	C.2	1	RES1	0.000	
13	  C6	26.257	-18.840	8.385	C.2	1	RES1	0.000	
14	  C7	26.290	-18.505	9.730	C.2	1	RES1	0.000	
15	  C8	29.433	-20.733	10.487	C.3	1	RES1	0.000	
16	  C9	29.470	-22.258	10.629	C.3	1	RES1	0.000	
17	 C10	29.183	-24.158	12.118	C.3	1	RES1	0.000	
18	 N11	21.536	-17.705	8.236	N.2	1	RES1	0.000	
19	 N12	19.687	-16.264	9.420	N.pl3	1	RES1	0.000	
20	 O12	18.129	-16.836	7.781	O.2	1	RES1	0.000	
21	 N13	16.869	-14.350	10.953	N.2	1	RES1	0.000	
22	 C38	27.873	-22.143	12.444	C.3	1	RES1	0.000	
23	 C39	27.798	-20.619	12.318	C.3	1	RES1	0.000	
24	 C40	25.131	-18.111	10.404	C.2	1	RES1	0.000	
25	 C41	23.926	-18.126	9.727	C.2	1	RES1	0.000	
26	 C42	20.327	-17.713	7.577	C.2	1	RES1	0.000	
27	 C43	19.267	-16.901	8.248	C.2	1	RES1	0.000	
28	 C44	18.913	-15.407	10.287	C.2	1	RES1	0.000	
29	 C45	19.588	-14.812	11.354	C.2	1	RES1	0.000	
30	 C46	18.883	-14.007	12.261	C.2	1	RES1	0.000	
31	 C47	17.531	-13.795	11.995	C.2	1	RES1	0.000	
32	 C48	17.564	-15.143	10.123	C.2	1	RES1	0.000	
@<TRIPOS>BOND
1 1 2 1
2 1 6 ar
3 1 26 ar
4 3 4 2
5 4 7 2
6 4 9 1
7 4 14 1
8 5 6 ar
9 5 8 ar
10 8 10 1
11 9 15 1
12 9 23 1
13 10 12 ar
14 10 25 ar
15 11 16 1
16 12 13 ar
17 13 14 ar
18 15 16 1
19 11 17 1
20 8 18 ar
21 18 26 ar
22 19 27 1
23 19 28 1
24 20 27 2
25 21 31 ar
26 21 32 ar
27 11 22 1
28 22 23 1
29 14 24 ar
30 24 25 ar
31 26 27 1
32 28 29 ar
33 28 32 ar
34 29 30 ar
35 30 31 ar
@<TRIPOS>SUBSTRUCTURE
1	RES1	1	GROUP	1 ****	RES
