# created with PyMOL 2.5.2
@<TRIPOS>MOLECULE
GSK_4ACD_TargetProtein
32 35 1                 
SMALL
USER_CHARGES
@<TRIPOS>ATOM
1	  C1	20.264	-18.621	6.535	C.2	1	RES1	0.000	
2	  N1	19.081	-18.619	5.810	N.pl3	1	RES1	0.000	
3	  O1	27.809	-17.594	12.034	O.2	1	RES1	0.000	
4	  S1	28.038	-18.249	10.751	S.O2	1	RES1	0.000	
5	  C2	22.464	-19.319	6.655	C.2	1	RES1	0.000	
6	  N2	21.290	-19.336	6.030	N.2	1	RES1	0.000	
7	  O2	29.052	-17.724	9.847	O.2	1	RES1	0.000	
8	  C3	22.698	-18.509	7.808	C.2	1	RES1	0.000	
9	  N3	28.367	-19.911	11.020	N.3	1	RES1	0.000	
10	  C4	24.006	-18.438	8.502	C.2	1	RES1	0.000	
11	  N4	28.056	-22.793	11.451	N.3	1	RES1	0.000	
12	  C5	24.051	-18.086	9.862	C.2	1	RES1	0.000	
13	  C6	25.258	-18.012	10.553	C.2	1	RES1	0.000	
14	  C7	26.448	-18.307	9.871	C.2	1	RES1	0.000	
15	  C8	27.958	-20.836	9.914	C.3	1	RES1	0.000	
16	  C9	28.478	-22.269	10.148	C.3	1	RES1	0.000	
17	 C10	28.589	-24.164	11.652	C.3	1	RES1	0.000	
18	 N11	21.691	-17.782	8.303	N.2	1	RES1	0.000	
19	 N12	19.775	-16.345	9.425	N.pl3	1	RES1	0.000	
20	 N13	16.875	-14.423	10.848	N.2	1	RES1	0.000	
21	 O13	18.273	-16.995	7.765	O.2	1	RES1	0.000	
22	 C40	28.477	-21.917	12.537	C.3	1	RES1	0.000	
23	 C41	27.932	-20.477	12.358	C.3	1	RES1	0.000	
24	 C42	26.450	-18.708	8.535	C.2	1	RES1	0.000	
25	 C43	25.217	-18.767	7.863	C.2	1	RES1	0.000	
26	 C44	20.476	-17.846	7.682	C.2	1	RES1	0.000	
27	 C45	19.393	-17.027	8.281	C.2	1	RES1	0.000	
28	 C46	18.979	-15.471	10.255	C.2	1	RES1	0.000	
29	 C47	19.587	-14.846	11.312	C.2	1	RES1	0.000	
30	 C48	18.869	-13.996	12.138	C.2	1	RES1	0.000	
31	 C49	17.518	-13.835	11.878	C.2	1	RES1	0.000	
32	 C50	17.622	-15.236	10.071	C.2	1	RES1	0.000	
@<TRIPOS>BOND
1 1 2 1
2 1 6 ar
3 1 26 ar
4 3 4 2
5 4 7 2
6 4 9 1
7 4 14 1
8 5 8 ar
9 5 6 ar
10 8 10 1
11 9 15 1
12 9 23 1
13 10 12 ar
14 10 25 ar
15 11 16 1
16 11 22 1
17 12 13 ar
18 13 14 ar
19 15 16 1
20 11 17 1
21 8 18 ar
22 18 26 ar
23 19 27 1
24 19 28 1
25 20 31 ar
26 20 32 ar
27 21 27 2
28 22 23 1
29 14 24 ar
30 24 25 ar
31 26 27 1
32 28 29 ar
33 28 32 ar
34 29 30 ar
35 30 31 ar
@<TRIPOS>SUBSTRUCTURE
1	RES1	1	GROUP	1 ****	RES
