# created with PyMOL 2.5.2
@<TRIPOS>MOLECULE
GSK_4ACD_TargetProtein
32 35 1                 
SMALL
USER_CHARGES
@<TRIPOS>ATOM
1	  C1	20.099	-18.400	6.437	C.2	1	RES1	0.000	
2	  N1	18.833	-18.465	5.840	N.pl3	1	RES1	0.000	
3	  O1	28.952	-18.023	9.704	O.2	1	RES1	0.000	
4	  S1	27.921	-18.465	10.615	S.O2	1	RES1	0.000	
5	  C2	22.302	-19.148	6.523	C.2	1	RES1	0.000	
6	  N2	21.094	-19.134	5.878	N.2	1	RES1	0.000	
7	  O2	27.712	-17.736	11.855	O.2	1	RES1	0.000	
8	  C3	22.563	-18.455	7.690	C.2	1	RES1	0.000	
9	  N3	28.156	-20.121	10.965	N.3	1	RES1	0.000	
10	  C4	23.868	-18.480	8.380	C.2	1	RES1	0.000	
11	  N4	29.045	-22.753	11.918	N.3	1	RES1	0.000	
12	  C5	23.952	-18.101	9.740	C.2	1	RES1	0.000	
13	  C6	25.189	-18.094	10.429	C.2	1	RES1	0.000	
14	  C7	26.346	-18.432	9.724	C.2	1	RES1	0.000	
15	  C8	29.449	-20.741	10.491	C.3	1	RES1	0.000	
16	  C9	29.368	-22.272	10.534	C.3	1	RES1	0.000	
17	  O9	18.188	-16.883	7.780	O.2	1	RES1	0.000	
18	 C10	28.957	-24.212	11.967	C.3	1	RES1	0.000	
19	 N11	21.557	-17.741	8.271	N.2	1	RES1	0.000	
20	 N12	19.689	-16.294	9.481	N.pl3	1	RES1	0.000	
21	 N13	16.838	-14.331	10.864	N.2	1	RES1	0.000	
22	 C33	27.775	-22.142	12.389	C.3	1	RES1	0.000	
23	 C34	27.841	-20.599	12.338	C.3	1	RES1	0.000	
24	 C35	26.287	-18.812	8.412	C.2	1	RES1	0.000	
25	 C36	25.073	-18.821	7.725	C.2	1	RES1	0.000	
26	 C37	20.368	-17.709	7.627	C.2	1	RES1	0.000	
27	 C38	19.310	-16.912	8.284	C.2	1	RES1	0.000	
28	 C39	18.930	-15.446	10.287	C.2	1	RES1	0.000	
29	 C40	19.530	-14.842	11.376	C.2	1	RES1	0.000	
30	 C41	18.812	-13.990	12.214	C.2	1	RES1	0.000	
31	 C42	17.464	-13.754	11.889	C.2	1	RES1	0.000	
32	 C43	17.571	-15.150	10.067	C.2	1	RES1	0.000	
@<TRIPOS>BOND
1 1 6 ar
2 1 26 ar
3 1 2 1
4 3 4 2
5 4 7 2
6 4 9 1
7 4 14 1
8 5 6 ar
9 5 8 ar
10 8 10 1
11 9 15 1
12 9 23 1
13 10 12 ar
14 11 16 1
15 12 13 ar
16 13 14 ar
17 15 16 1
18 11 18 1
19 8 19 ar
20 19 26 ar
21 20 27 1
22 20 28 1
23 21 31 ar
24 21 32 ar
25 11 22 1
26 22 23 1
27 14 24 ar
28 24 25 ar
29 10 25 ar
30 26 27 1
31 17 27 2
32 28 29 ar
33 28 32 ar
34 29 30 ar
35 30 31 ar
@<TRIPOS>SUBSTRUCTURE
1	RES1	1	GROUP	1 ****	RES
