# created with PyMOL 2.5.2
@<TRIPOS>MOLECULE
GSK_4ACD_TargetProtein
32 35 1                 
SMALL
USER_CHARGES
@<TRIPOS>ATOM
1	  C1	20.273	-18.588	6.503	C.2	1	RES1	0.000	
2	  N1	19.081	-18.603	5.806	N.pl3	1	RES1	0.000	
3	  O1	27.821	-17.575	11.986	O.2	1	RES1	0.000	
4	  S1	28.061	-18.248	10.723	S.O2	1	RES1	0.000	
5	  C2	22.470	-19.266	6.622	C.2	1	RES1	0.000	
6	  N2	21.284	-19.317	5.987	N.2	1	RES1	0.000	
7	  O2	29.074	-17.756	9.809	O.2	1	RES1	0.000	
8	  C3	22.723	-18.504	7.779	C.2	1	RES1	0.000	
9	  N3	28.368	-19.921	11.029	N.3	1	RES1	0.000	
10	  C4	24.001	-18.446	8.479	C.2	1	RES1	0.000	
11	  N4	27.997	-22.780	11.496	N.3	1	RES1	0.000	
12	  C5	25.218	-18.831	7.858	C.2	1	RES1	0.000	
13	  C6	26.441	-18.764	8.535	C.2	1	RES1	0.000	
14	  C7	26.472	-18.308	9.841	C.2	1	RES1	0.000	
15	  C8	27.922	-20.853	9.940	C.3	1	RES1	0.000	
16	  C9	28.454	-22.252	10.187	C.3	1	RES1	0.000	
17	 C10	28.510	-24.146	11.726	C.3	1	RES1	0.000	
18	 O10	18.269	-17.031	7.803	O.2	1	RES1	0.000	
19	 N11	21.683	-17.807	8.279	N.2	1	RES1	0.000	
20	 N12	19.792	-16.353	9.439	N.pl3	1	RES1	0.000	
21	 N13	16.877	-14.464	10.891	N.2	1	RES1	0.000	
22	 C35	28.435	-21.874	12.582	C.3	1	RES1	0.000	
23	 C36	27.923	-20.448	12.364	C.3	1	RES1	0.000	
24	 C37	25.283	-17.925	10.495	C.2	1	RES1	0.000	
25	 C38	24.100	-18.002	9.829	C.2	1	RES1	0.000	
26	 C39	20.493	-17.818	7.641	C.2	1	RES1	0.000	
27	 C40	19.399	-17.015	8.282	C.2	1	RES1	0.000	
28	 C41	18.987	-15.515	10.269	C.2	1	RES1	0.000	
29	 C42	19.622	-14.890	11.356	C.2	1	RES1	0.000	
30	 C43	18.871	-14.042	12.175	C.2	1	RES1	0.000	
31	 C44	17.530	-13.865	11.912	C.2	1	RES1	0.000	
32	 C45	17.609	-15.251	10.073	C.2	1	RES1	0.000	
@<TRIPOS>BOND
1 1 2 1
2 1 6 ar
3 1 26 ar
4 3 4 2
5 4 7 2
6 4 9 1
7 4 14 1
8 5 6 ar
9 5 8 ar
10 8 10 1
11 9 15 1
12 9 23 1
13 10 12 ar
14 11 16 1
15 12 13 ar
16 13 14 ar
17 15 16 1
18 11 17 1
19 18 27 2
20 8 19 ar
21 19 26 ar
22 20 27 1
23 20 28 1
24 21 31 ar
25 21 32 ar
26 11 22 1
27 22 23 1
28 14 24 ar
29 24 25 ar
30 10 25 ar
31 26 27 1
32 28 29 ar
33 28 32 ar
34 29 30 ar
35 30 31 ar
@<TRIPOS>SUBSTRUCTURE
1	RES1	1	GROUP	1 ****	RES
