# created with PyMOL 2.5.2
@<TRIPOS>MOLECULE
GSK_4ACD_TargetProtein
32 35 1                 
SMALL
USER_CHARGES
@<TRIPOS>ATOM
1	  C1	20.087	-18.429	6.384	C.2	1	RES1	0.000	
2	  N1	18.877	-18.341	5.708	N.pl3	1	RES1	0.000	
3	  O1	28.897	-18.020	9.711	O.2	1	RES1	0.000	
4	  S1	27.863	-18.504	10.635	S.O2	1	RES1	0.000	
5	  C2	22.267	-19.183	6.492	C.2	1	RES1	0.000	
6	  N2	21.053	-19.166	5.850	N.2	1	RES1	0.000	
7	  O2	27.583	-17.827	11.902	O.2	1	RES1	0.000	
8	  C3	22.504	-18.498	7.683	C.2	1	RES1	0.000	
9	  N3	28.149	-20.162	10.920	N.3	1	RES1	0.000	
10	  C4	23.824	-18.490	8.363	C.2	1	RES1	0.000	
11	  N4	29.166	-22.675	12.005	N.3	1	RES1	0.000	
12	  C5	23.895	-18.178	9.720	C.2	1	RES1	0.000	
13	  C6	25.123	-18.178	10.405	C.2	1	RES1	0.000	
14	  C7	26.286	-18.512	9.724	C.2	1	RES1	0.000	
15	  C8	29.483	-20.710	10.501	C.3	1	RES1	0.000	
16	  C9	29.531	-22.228	10.640	C.3	1	RES1	0.000	
17	 C10	29.205	-24.147	12.098	C.3	1	RES1	0.000	
18	 N11	21.528	-17.731	8.216	N.2	1	RES1	0.000	
19	 O11	18.154	-16.787	7.740	O.2	1	RES1	0.000	
20	 N12	19.690	-16.254	9.411	N.pl3	1	RES1	0.000	
21	 N13	16.873	-14.333	10.971	N.2	1	RES1	0.000	
22	 C37	27.848	-22.161	12.382	C.3	1	RES1	0.000	
23	 C38	27.802	-20.631	12.311	C.3	1	RES1	0.000	
24	 C39	26.249	-18.832	8.366	C.2	1	RES1	0.000	
25	 C40	25.001	-18.810	7.712	C.2	1	RES1	0.000	
26	 C41	20.336	-17.700	7.584	C.2	1	RES1	0.000	
27	 C42	19.275	-16.864	8.216	C.2	1	RES1	0.000	
28	 C43	18.931	-15.409	10.300	C.2	1	RES1	0.000	
29	 C44	19.581	-14.825	11.374	C.2	1	RES1	0.000	
30	 C45	18.885	-13.974	12.241	C.2	1	RES1	0.000	
31	 C46	17.547	-13.771	12.002	C.2	1	RES1	0.000	
32	 C47	17.549	-15.126	10.128	C.2	1	RES1	0.000	
@<TRIPOS>BOND
1 1 2 1
2 1 6 ar
3 1 26 ar
4 3 4 2
5 4 7 2
6 4 9 1
7 4 14 1
8 5 6 ar
9 5 8 ar
10 8 10 1
11 9 15 1
12 9 23 1
13 10 12 ar
14 10 25 ar
15 11 16 1
16 12 13 ar
17 13 14 ar
18 15 16 1
19 11 17 1
20 8 18 ar
21 18 26 ar
22 19 27 2
23 20 27 1
24 20 28 1
25 21 31 ar
26 21 32 ar
27 11 22 1
28 22 23 1
29 14 24 ar
30 24 25 ar
31 26 27 1
32 28 29 ar
33 28 32 ar
34 29 30 ar
35 30 31 ar
@<TRIPOS>SUBSTRUCTURE
1	RES1	1	GROUP	1 ****	RES
