# created with PyMOL 2.5.2
@<TRIPOS>MOLECULE
GSK_4ACD_TargetProtein
32 35 1                 
SMALL
USER_CHARGES
@<TRIPOS>ATOM
1	  C1	20.128	-18.382	6.352	C.2	1	RES1	0.000	
2	  N1	18.961	-18.293	5.629	N.pl3	1	RES1	0.000	
3	  O1	27.581	-17.751	11.960	O.2	1	RES1	0.000	
4	  S1	27.822	-18.492	10.742	S.O2	1	RES1	0.000	
5	  C2	22.311	-19.146	6.474	C.2	1	RES1	0.000	
6	  N2	21.112	-19.113	5.840	N.2	1	RES1	0.000	
7	  O2	28.898	-18.088	9.829	O.2	1	RES1	0.000	
8	  C3	22.547	-18.470	7.677	C.2	1	RES1	0.000	
9	  N3	28.042	-20.156	11.114	N.3	1	RES1	0.000	
10	  C4	23.813	-18.499	8.401	C.2	1	RES1	0.000	
11	  N4	29.281	-22.740	11.726	N.3	1	RES1	0.000	
12	  C5	25.027	-18.852	7.794	C.2	1	RES1	0.000	
13	  C6	26.251	-18.880	8.484	C.2	1	RES1	0.000	
14	  C7	26.261	-18.482	9.825	C.2	1	RES1	0.000	
15	  C8	28.667	-20.418	12.430	C.3	1	RES1	0.000	
16	  C9	28.639	-21.937	12.779	C.3	1	RES1	0.000	
17	 C10	29.215	-24.170	12.064	C.3	1	RES1	0.000	
18	 N11	21.559	-17.734	8.225	N.2	1	RES1	0.000	
19	 N12	19.682	-16.258	9.398	N.pl3	1	RES1	0.000	
20	 O12	18.152	-16.811	7.712	O.2	1	RES1	0.000	
21	 N13	16.801	-14.366	10.900	N.2	1	RES1	0.000	
22	 C39	28.665	-22.480	10.406	C.3	1	RES1	0.000	
23	 C40	28.729	-21.012	10.053	C.3	1	RES1	0.000	
24	 C41	25.104	-18.090	10.469	C.2	1	RES1	0.000	
25	 C42	23.903	-18.108	9.766	C.2	1	RES1	0.000	
26	 C43	20.354	-17.677	7.586	C.2	1	RES1	0.000	
27	 C44	19.274	-16.872	8.210	C.2	1	RES1	0.000	
28	 C45	18.910	-15.423	10.255	C.2	1	RES1	0.000	
29	 C46	19.536	-14.817	11.349	C.2	1	RES1	0.000	
30	 C47	18.814	-14.001	12.202	C.2	1	RES1	0.000	
31	 C48	17.462	-13.801	11.962	C.2	1	RES1	0.000	
32	 C49	17.541	-15.145	10.085	C.2	1	RES1	0.000	
@<TRIPOS>BOND
1 1 2 1
2 1 6 ar
3 1 26 ar
4 3 4 2
5 4 7 2
6 4 9 1
7 4 14 1
8 5 6 ar
9 5 8 ar
10 8 10 1
11 9 15 1
12 9 23 1
13 10 12 ar
14 10 25 ar
15 11 16 1
16 12 13 ar
17 13 14 ar
18 15 16 1
19 11 17 1
20 8 18 ar
21 18 26 ar
22 19 27 1
23 19 28 1
24 20 27 2
25 21 31 ar
26 21 32 ar
27 11 22 1
28 22 23 1
29 14 24 ar
30 24 25 ar
31 26 27 1
32 28 29 ar
33 28 32 ar
34 29 30 ar
35 30 31 ar
@<TRIPOS>SUBSTRUCTURE
1	RES1	1	GROUP	1 ****	RES
