# created with PyMOL 2.5.2
@<TRIPOS>MOLECULE
CDK6_2EUF_TargetProtein
33 37 1                 
SMALL
USER_CHARGES
@<TRIPOS>ATOM
1	  C1	34.694	27.651	59.509	C.3	1	RES1	0.000	
2	  N1	31.383	22.952	63.590	N.2	1	RES1	0.000	
3	  O1	32.629	28.705	60.054	O.2	1	RES1	0.000	
4	  C2	33.261	27.667	59.969	C.2	1	RES1	0.000	
5	  N2	30.267	21.012	62.781	N.pl3	1	RES1	0.000	
6	  C3	32.633	26.354	60.344	C.2	1	RES1	0.000	
7	  N3	27.903	16.950	59.619	N.pl3	1	RES1	0.000	
8	  C4	32.615	25.988	61.643	C.2	1	RES1	0.000	
9	  N4	26.541	14.688	58.349	N.3	1	RES1	0.000	
10	  C5	33.121	26.854	62.785	C.3	1	RES1	0.000	
11	  C6	31.991	24.676	61.973	C.2	1	RES1	0.000	
12	  C7	31.915	24.155	63.268	C.2	1	RES1	0.000	
13	  O7	32.117	25.877	58.114	O.2	1	RES1	0.000	
14	  C8	30.895	22.236	62.569	C.2	1	RES1	0.000	
15	  N8	29.384	18.856	62.503	N.2	1	RES1	0.000	
16	  C9	29.672	20.046	61.929	C.2	1	RES1	0.000	
17	  N9	30.891	22.673	61.289	N.2	1	RES1	0.000	
18	 C10	29.373	20.282	60.606	C.2	1	RES1	0.000	
19	 N10	31.434	24.293	59.635	N.2	1	RES1	0.000	
20	 C11	28.801	19.269	59.825	C.2	1	RES1	0.000	
21	 C12	28.505	17.993	60.373	C.2	1	RES1	0.000	
22	 C13	28.566	15.625	59.507	C.3	1	RES1	0.000	
23	 C14	28.005	14.803	58.338	C.3	1	RES1	0.000	
24	 C34	25.961	16.060	58.308	C.3	1	RES1	0.000	
25	 C35	26.417	16.943	59.470	C.3	1	RES1	0.000	
26	 C36	28.820	17.897	61.734	C.2	1	RES1	0.000	
27	 C37	31.428	23.855	60.999	C.2	1	RES1	0.000	
28	 C38	30.852	23.449	58.576	C.3	1	RES1	0.000	
29	 C39	29.944	24.207	57.570	C.3	1	RES1	0.000	
30	 C40	28.666	23.345	57.502	C.3	1	RES1	0.000	
31	 C41	29.074	21.952	57.946	C.3	1	RES1	0.000	
32	 C42	30.088	22.246	59.078	C.3	1	RES1	0.000	
33	 C43	32.056	25.504	59.270	C.2	1	RES1	0.000	
@<TRIPOS>BOND
1 1 4 1
2 2 12 ar
3 2 14 ar
4 3 4 2
5 4 6 1
6 5 14 1
7 5 16 1
8 6 8 ar
9 6 33 ar
10 7 25 1
11 8 10 1
12 8 11 ar
13 11 12 ar
14 14 17 ar
15 15 16 ar
16 16 18 ar
17 18 20 ar
18 19 27 ar
19 19 28 1
20 19 33 ar
21 20 21 ar
22 7 21 1
23 21 26 ar
24 7 22 1
25 22 23 1
26 9 23 1
27 9 24 1
28 24 25 1
29 15 26 ar
30 11 27 ar
31 17 27 ar
32 28 29 1
33 28 32 1
34 29 30 1
35 30 31 1
36 31 32 1
37 13 33 2
@<TRIPOS>SUBSTRUCTURE
1	RES1	1	GROUP	1 ****	RES
