# created with PyMOL 2.5.2
@<TRIPOS>MOLECULE
GSK_4ACD_TargetProtein
32 35 1                 
SMALL
USER_CHARGES
@<TRIPOS>ATOM
1	  C1	20.293	-18.611	6.510	C.2	1	RES1	0.000	
2	  N1	19.046	-18.722	5.869	N.pl3	1	RES1	0.000	
3	  O1	29.073	-17.738	9.817	O.2	1	RES1	0.000	
4	  S1	28.071	-18.246	10.760	S.O2	1	RES1	0.000	
5	  C2	22.503	-19.262	6.640	C.2	1	RES1	0.000	
6	  N2	21.317	-19.295	5.990	N.2	1	RES1	0.000	
7	  O2	27.810	-17.560	12.004	O.2	1	RES1	0.000	
8	  C3	22.714	-18.528	7.806	C.2	1	RES1	0.000	
9	  N3	28.372	-19.927	11.049	N.3	1	RES1	0.000	
10	  C4	24.012	-18.469	8.510	C.2	1	RES1	0.000	
11	  N4	27.989	-22.778	11.430	N.3	1	RES1	0.000	
12	  C5	25.217	-18.806	7.888	C.2	1	RES1	0.000	
13	  C6	26.447	-18.734	8.547	C.2	1	RES1	0.000	
14	  C7	26.461	-18.313	9.869	C.2	1	RES1	0.000	
15	  C8	27.925	-20.804	9.912	C.3	1	RES1	0.000	
16	  C9	28.442	-22.228	10.140	C.3	1	RES1	0.000	
17	 C10	28.488	-24.143	11.620	C.3	1	RES1	0.000	
18	 N11	21.700	-17.816	8.331	N.2	1	RES1	0.000	
19	 N12	19.769	-16.363	9.454	N.pl3	1	RES1	0.000	
20	 N13	16.893	-14.413	10.822	N.2	1	RES1	0.000	
21	 O13	18.286	-17.003	7.761	O.2	1	RES1	0.000	
22	 C41	28.435	-21.899	12.533	C.3	1	RES1	0.000	
23	 C42	27.937	-20.484	12.373	C.3	1	RES1	0.000	
24	 C43	25.301	-17.956	10.546	C.2	1	RES1	0.000	
25	 C44	24.089	-18.051	9.845	C.2	1	RES1	0.000	
26	 C45	20.494	-17.857	7.668	C.2	1	RES1	0.000	
27	 C46	19.385	-17.032	8.303	C.2	1	RES1	0.000	
28	 C47	18.979	-15.502	10.258	C.2	1	RES1	0.000	
29	 C48	19.601	-14.849	11.354	C.2	1	RES1	0.000	
30	 C49	18.871	-14.015	12.168	C.2	1	RES1	0.000	
31	 C50	17.512	-13.832	11.864	C.2	1	RES1	0.000	
32	 C51	17.609	-15.227	10.053	C.2	1	RES1	0.000	
@<TRIPOS>BOND
1 1 2 1
2 1 6 ar
3 1 26 ar
4 3 4 2
5 4 7 2
6 4 9 1
7 4 14 1
8 5 8 ar
9 5 6 ar
10 8 10 1
11 9 15 1
12 9 23 1
13 10 12 ar
14 10 25 ar
15 11 16 1
16 11 22 1
17 12 13 ar
18 13 14 ar
19 15 16 1
20 11 17 1
21 8 18 ar
22 18 26 ar
23 19 27 1
24 19 28 1
25 20 31 ar
26 20 32 ar
27 21 27 2
28 22 23 1
29 14 24 ar
30 24 25 ar
31 26 27 1
32 28 29 ar
33 28 32 ar
34 29 30 ar
35 30 31 ar
@<TRIPOS>SUBSTRUCTURE
1	RES1	1	GROUP	1 ****	RES
