# created with PyMOL 2.5.2
@<TRIPOS>MOLECULE
GSK_4ACD_TargetProtein
32 35 1                 
SMALL
USER_CHARGES
@<TRIPOS>ATOM
1	  C1	20.233	-18.501	6.454	C.2	1	RES1	0.000	
2	  N1	18.996	-18.547	5.776	N.pl3	1	RES1	0.000	
3	  O1	27.727	-17.667	11.997	O.2	1	RES1	0.000	
4	  S1	27.949	-18.328	10.731	S.O2	1	RES1	0.000	
5	  C2	22.399	-19.257	6.592	C.2	1	RES1	0.000	
6	  N2	21.201	-19.285	5.951	N.2	1	RES1	0.000	
7	  O2	28.941	-17.785	9.810	O.2	1	RES1	0.000	
8	  C3	22.659	-18.506	7.731	C.2	1	RES1	0.000	
9	  N3	28.333	-19.987	11.079	N.3	1	RES1	0.000	
10	  C4	23.969	-18.472	8.446	C.2	1	RES1	0.000	
11	  N4	28.360	-22.862	11.558	N.3	1	RES1	0.000	
12	  C5	23.996	-18.094	9.802	C.2	1	RES1	0.000	
13	  C6	25.199	-18.065	10.514	C.2	1	RES1	0.000	
14	  C7	26.412	-18.412	9.849	C.2	1	RES1	0.000	
15	  C8	28.070	-20.994	9.932	C.3	1	RES1	0.000	
16	  C9	28.784	-22.303	10.253	C.3	1	RES1	0.000	
17	  O9	18.275	-16.885	7.758	O.2	1	RES1	0.000	
18	 C10	29.039	-24.134	11.845	C.3	1	RES1	0.000	
19	 N11	21.646	-17.734	8.264	N.2	1	RES1	0.000	
20	 N12	19.748	-16.275	9.459	N.pl3	1	RES1	0.000	
21	 N13	16.841	-14.398	10.871	N.2	1	RES1	0.000	
22	 C35	28.605	-21.874	12.642	C.3	1	RES1	0.000	
23	 C36	27.932	-20.525	12.372	C.3	1	RES1	0.000	
24	 C37	26.367	-18.782	8.516	C.2	1	RES1	0.000	
25	 C38	25.167	-18.826	7.836	C.2	1	RES1	0.000	
26	 C39	20.453	-17.779	7.620	C.2	1	RES1	0.000	
27	 C40	19.365	-16.927	8.292	C.2	1	RES1	0.000	
28	 C41	18.941	-15.438	10.252	C.2	1	RES1	0.000	
29	 C42	19.547	-14.830	11.338	C.2	1	RES1	0.000	
30	 C43	18.830	-13.989	12.170	C.2	1	RES1	0.000	
31	 C44	17.476	-13.798	11.909	C.2	1	RES1	0.000	
32	 C45	17.584	-15.198	10.079	C.2	1	RES1	0.000	
@<TRIPOS>BOND
1 1 6 ar
2 1 26 ar
3 1 2 1
4 3 4 2
5 4 7 2
6 4 9 1
7 4 14 1
8 5 6 ar
9 5 8 ar
10 8 10 1
11 9 15 1
12 9 23 1
13 10 12 ar
14 11 16 1
15 12 13 ar
16 13 14 ar
17 15 16 1
18 11 18 1
19 8 19 ar
20 19 26 ar
21 20 27 1
22 20 28 1
23 21 31 ar
24 21 32 ar
25 11 22 1
26 22 23 1
27 14 24 ar
28 24 25 ar
29 10 25 ar
30 26 27 1
31 17 27 2
32 28 29 ar
33 28 32 ar
34 29 30 ar
35 30 31 ar
@<TRIPOS>SUBSTRUCTURE
1	RES1	1	GROUP	1 ****	RES
