# created with PyMOL 2.5.2
@<TRIPOS>MOLECULE
GSK_4ACD_TargetProtein
32 35 1                 
SMALL
USER_CHARGES
@<TRIPOS>ATOM
1	  C1	20.134	-18.507	6.510	C.2	1	RES1	0.000	
2	  N1	18.903	-18.471	5.822	N.pl3	1	RES1	0.000	
3	  O1	28.999	-18.006	9.686	O.2	1	RES1	0.000	
4	  S1	27.986	-18.380	10.636	S.O2	1	RES1	0.000	
5	  C2	22.320	-19.242	6.582	C.2	1	RES1	0.000	
6	  N2	21.128	-19.260	5.950	N.2	1	RES1	0.000	
7	  O2	27.773	-17.695	11.884	O.2	1	RES1	0.000	
8	  C3	22.597	-18.495	7.725	C.2	1	RES1	0.000	
9	  N3	28.176	-20.085	10.963	N.3	1	RES1	0.000	
10	  C4	23.908	-18.462	8.421	C.2	1	RES1	0.000	
11	  N4	28.906	-22.776	11.820	N.3	1	RES1	0.000	
12	  C5	25.085	-18.899	7.795	C.2	1	RES1	0.000	
13	  C6	26.310	-18.850	8.433	C.2	1	RES1	0.000	
14	  C7	26.392	-18.362	9.743	C.2	1	RES1	0.000	
15	  C8	29.403	-20.756	10.421	C.3	1	RES1	0.000	
16	  C9	29.227	-22.288	10.470	C.3	1	RES1	0.000	
17	 C10	28.727	-24.216	11.833	C.3	1	RES1	0.000	
18	 O10	18.218	-16.851	7.801	O.2	1	RES1	0.000	
19	 N11	21.592	-17.723	8.262	N.2	1	RES1	0.000	
20	 N12	19.762	-16.257	9.456	N.pl3	1	RES1	0.000	
21	 N13	16.822	-14.472	10.808	N.2	1	RES1	0.000	
22	 C37	27.651	-22.092	12.311	C.3	1	RES1	0.000	
23	 C38	27.837	-20.581	12.349	C.3	1	RES1	0.000	
24	 C39	25.230	-17.953	10.424	C.2	1	RES1	0.000	
25	 C40	23.995	-17.994	9.749	C.2	1	RES1	0.000	
26	 C41	20.389	-17.737	7.637	C.2	1	RES1	0.000	
27	 C42	19.313	-16.904	8.298	C.2	1	RES1	0.000	
28	 C43	19.001	-15.398	10.319	C.2	1	RES1	0.000	
29	 C44	19.536	-14.729	11.433	C.2	1	RES1	0.000	
30	 C45	18.702	-13.944	12.215	C.2	1	RES1	0.000	
31	 C46	17.370	-13.837	11.878	C.2	1	RES1	0.000	
32	 C47	17.659	-15.240	10.063	C.2	1	RES1	0.000	
@<TRIPOS>BOND
1 1 2 1
2 1 6 ar
3 1 26 ar
4 3 4 2
5 4 7 2
6 4 9 1
7 4 14 1
8 5 6 ar
9 5 8 ar
10 8 10 1
11 9 15 1
12 9 23 1
13 10 12 ar
14 10 25 ar
15 11 16 1
16 12 13 ar
17 13 14 ar
18 15 16 1
19 11 17 1
20 18 27 2
21 8 19 ar
22 19 26 ar
23 20 27 1
24 20 28 1
25 21 31 ar
26 21 32 ar
27 11 22 1
28 22 23 1
29 14 24 ar
30 24 25 ar
31 26 27 1
32 28 29 ar
33 28 32 ar
34 29 30 ar
35 30 31 ar
@<TRIPOS>SUBSTRUCTURE
1	RES1	1	GROUP	1 ****	RES
