# created with PyMOL 2.5.2
@<TRIPOS>MOLECULE
GSK_4ACD_TargetProtein
32 35 1                 
SMALL
USER_CHARGES
@<TRIPOS>ATOM
1	  C1	20.072	-18.319	6.395	C.2	1	RES1	0.000	
2	  N1	18.862	-18.193	5.685	N.pl3	1	RES1	0.000	
3	  O1	27.732	-18.014	11.885	O.2	1	RES1	0.000	
4	  S1	27.877	-18.669	10.605	S.O2	1	RES1	0.000	
5	  C2	22.245	-19.110	6.441	C.2	1	RES1	0.000	
6	  N2	21.070	-19.044	5.844	N.2	1	RES1	0.000	
7	  O2	28.883	-18.214	9.646	O.2	1	RES1	0.000	
8	  C3	22.513	-18.424	7.680	C.2	1	RES1	0.000	
9	  N3	28.068	-20.366	10.863	N.3	1	RES1	0.000	
10	  C4	23.834	-18.467	8.377	C.2	1	RES1	0.000	
11	  N4	29.046	-22.981	11.808	N.3	1	RES1	0.000	
12	  C5	24.982	-18.895	7.751	C.2	1	RES1	0.000	
13	  C6	26.238	-18.953	8.390	C.2	1	RES1	0.000	
14	  C7	26.272	-18.577	9.722	C.2	1	RES1	0.000	
15	  C8	29.391	-20.909	10.417	C.3	1	RES1	0.000	
16	  C9	29.395	-22.420	10.478	C.3	1	RES1	0.000	
17	 C10	30.122	-22.840	12.789	C.3	1	RES1	0.000	
18	 N11	21.545	-17.685	8.231	N.2	1	RES1	0.000	
19	 O11	18.167	-16.720	7.805	O.2	1	RES1	0.000	
20	 N12	19.721	-16.225	9.490	N.pl3	1	RES1	0.000	
21	 N13	16.809	-14.402	10.788	N.2	1	RES1	0.000	
22	 C39	27.753	-22.408	12.272	C.3	1	RES1	0.000	
23	 C40	27.725	-20.864	12.236	C.3	1	RES1	0.000	
24	 C41	25.151	-18.167	10.402	C.2	1	RES1	0.000	
25	 C42	23.918	-18.107	9.728	C.2	1	RES1	0.000	
26	 C43	20.345	-17.626	7.598	C.2	1	RES1	0.000	
27	 C44	19.268	-16.811	8.291	C.2	1	RES1	0.000	
28	 C45	18.958	-15.375	10.366	C.2	1	RES1	0.000	
29	 C46	19.475	-14.722	11.498	C.2	1	RES1	0.000	
30	 C47	18.665	-13.941	12.252	C.2	1	RES1	0.000	
31	 C48	17.307	-13.833	11.892	C.2	1	RES1	0.000	
32	 C49	17.624	-15.175	10.066	C.2	1	RES1	0.000	
@<TRIPOS>BOND
1 1 2 1
2 1 6 ar
3 1 26 ar
4 3 4 2
5 4 7 2
6 4 9 1
7 4 14 1
8 5 6 ar
9 5 8 ar
10 8 10 1
11 9 15 1
12 9 23 1
13 10 12 ar
14 10 25 ar
15 11 16 1
16 12 13 ar
17 13 14 ar
18 15 16 1
19 11 17 1
20 8 18 ar
21 18 26 ar
22 19 27 2
23 20 27 1
24 20 28 1
25 21 31 ar
26 21 32 ar
27 11 22 1
28 22 23 1
29 14 24 ar
30 24 25 ar
31 26 27 1
32 28 29 ar
33 28 32 ar
34 29 30 ar
35 30 31 ar
@<TRIPOS>SUBSTRUCTURE
1	RES1	1	GROUP	1 ****	RES
