# created with PyMOL 2.5.2
@<TRIPOS>MOLECULE
GSK_4ACD_TargetProtein
32 35 1                 
SMALL
USER_CHARGES
@<TRIPOS>ATOM
1	  C1	20.076	-18.411	6.367	C.2	1	RES1	0.000	
2	  N1	18.872	-18.298	5.690	N.pl3	1	RES1	0.000	
3	  O1	28.897	-18.034	9.717	O.2	1	RES1	0.000	
4	  S1	27.863	-18.506	10.598	S.O2	1	RES1	0.000	
5	  C2	22.273	-19.177	6.470	C.2	1	RES1	0.000	
6	  N2	21.063	-19.136	5.838	N.2	1	RES1	0.000	
7	  O2	27.613	-17.817	11.884	O.2	1	RES1	0.000	
8	  C3	22.543	-18.483	7.649	C.2	1	RES1	0.000	
9	  N3	28.125	-20.168	10.909	N.3	1	RES1	0.000	
10	  C4	23.809	-18.477	8.356	C.2	1	RES1	0.000	
11	  N4	29.164	-22.675	12.021	N.3	1	RES1	0.000	
12	  C5	25.017	-18.878	7.708	C.2	1	RES1	0.000	
13	  C6	26.250	-18.898	8.360	C.2	1	RES1	0.000	
14	  C7	26.288	-18.493	9.716	C.2	1	RES1	0.000	
15	  C8	29.472	-20.726	10.518	C.3	1	RES1	0.000	
16	  C9	29.500	-22.258	10.671	C.3	1	RES1	0.000	
17	 C10	29.174	-24.150	12.141	C.3	1	RES1	0.000	
18	 N11	21.551	-17.726	8.216	N.2	1	RES1	0.000	
19	 N12	19.686	-16.271	9.409	N.pl3	1	RES1	0.000	
20	 O12	18.147	-16.807	7.746	O.2	1	RES1	0.000	
21	 N13	16.858	-14.346	10.995	N.2	1	RES1	0.000	
22	 C41	27.831	-22.140	12.402	C.3	1	RES1	0.000	
23	 C42	27.790	-20.601	12.312	C.3	1	RES1	0.000	
24	 C43	25.155	-18.091	10.376	C.2	1	RES1	0.000	
25	 C44	23.908	-18.081	9.700	C.2	1	RES1	0.000	
26	 C45	20.307	-17.687	7.579	C.2	1	RES1	0.000	
27	 C46	19.273	-16.881	8.266	C.2	1	RES1	0.000	
28	 C47	18.939	-15.430	10.295	C.2	1	RES1	0.000	
29	 C48	19.583	-14.844	11.365	C.2	1	RES1	0.000	
30	 C49	18.896	-14.015	12.251	C.2	1	RES1	0.000	
31	 C50	17.540	-13.811	12.019	C.2	1	RES1	0.000	
32	 C51	17.583	-15.146	10.152	C.2	1	RES1	0.000	
@<TRIPOS>BOND
1 1 2 1
2 1 6 ar
3 1 26 ar
4 3 4 2
5 4 7 2
6 4 9 1
7 4 14 1
8 5 6 ar
9 5 8 ar
10 8 10 1
11 9 15 1
12 9 23 1
13 10 12 ar
14 10 25 ar
15 11 16 1
16 11 22 1
17 12 13 ar
18 13 14 ar
19 15 16 1
20 11 17 1
21 8 18 ar
22 18 26 ar
23 19 27 1
24 19 28 1
25 20 27 2
26 21 31 ar
27 21 32 ar
28 22 23 1
29 14 24 ar
30 24 25 ar
31 26 27 1
32 28 29 ar
33 28 32 ar
34 29 30 ar
35 30 31 ar
@<TRIPOS>SUBSTRUCTURE
1	RES1	1	GROUP	1 ****	RES
