# created with PyMOL 2.5.2
@<TRIPOS>MOLECULE
GSK_4ACD_TargetProtein
32 35 1                 
SMALL
USER_CHARGES
@<TRIPOS>ATOM
1	  C1	20.095	-18.386	6.368	C.2	1	RES1	0.000	
2	  N1	18.829	-18.445	5.761	N.pl3	1	RES1	0.000	
3	  O1	27.611	-17.790	11.870	O.2	1	RES1	0.000	
4	  S1	27.836	-18.484	10.609	S.O2	1	RES1	0.000	
5	  C2	22.283	-19.103	6.419	C.2	1	RES1	0.000	
6	  N2	21.081	-19.100	5.803	N.2	1	RES1	0.000	
7	  O2	28.893	-18.029	9.703	O.2	1	RES1	0.000	
8	  C3	22.536	-18.452	7.625	C.2	1	RES1	0.000	
9	  N3	28.115	-20.155	10.921	N.3	1	RES1	0.000	
10	  C4	23.832	-18.471	8.341	C.2	1	RES1	0.000	
11	  N4	29.126	-22.697	12.033	N.3	1	RES1	0.000	
12	  C5	25.027	-18.830	7.699	C.2	1	RES1	0.000	
13	  C6	26.253	-18.831	8.365	C.2	1	RES1	0.000	
14	  C7	26.294	-18.499	9.712	C.2	1	RES1	0.000	
15	  C8	29.456	-20.721	10.543	C.3	1	RES1	0.000	
16	  C9	29.475	-22.227	10.657	C.3	1	RES1	0.000	
17	 C10	29.155	-24.167	12.129	C.3	1	RES1	0.000	
18	 N11	21.520	-17.750	8.220	N.2	1	RES1	0.000	
19	 N12	19.704	-16.279	9.414	N.pl3	1	RES1	0.000	
20	 N13	16.883	-14.351	10.995	N.2	1	RES1	0.000	
21	 O13	18.155	-16.807	7.768	O.2	1	RES1	0.000	
22	 C43	27.802	-22.139	12.418	C.3	1	RES1	0.000	
23	 C44	27.767	-20.625	12.320	C.3	1	RES1	0.000	
24	 C45	25.134	-18.103	10.390	C.2	1	RES1	0.000	
25	 C46	23.912	-18.129	9.697	C.2	1	RES1	0.000	
26	 C47	20.320	-17.731	7.573	C.2	1	RES1	0.000	
27	 C48	19.265	-16.892	8.266	C.2	1	RES1	0.000	
28	 C49	18.966	-15.442	10.308	C.2	1	RES1	0.000	
29	 C50	19.631	-14.840	11.363	C.2	1	RES1	0.000	
30	 C51	18.912	-14.023	12.231	C.2	1	RES1	0.000	
31	 C52	17.571	-13.803	12.014	C.2	1	RES1	0.000	
32	 C53	17.602	-15.161	10.158	C.2	1	RES1	0.000	
@<TRIPOS>BOND
1 1 2 1
2 1 6 ar
3 1 26 ar
4 3 4 2
5 4 7 2
6 4 9 1
7 4 14 1
8 5 8 ar
9 5 6 ar
10 8 10 1
11 9 15 1
12 9 23 1
13 10 12 ar
14 10 25 ar
15 11 16 1
16 11 22 1
17 12 13 ar
18 13 14 ar
19 15 16 1
20 11 17 1
21 8 18 ar
22 18 26 ar
23 19 27 1
24 19 28 1
25 20 31 ar
26 20 32 ar
27 21 27 2
28 22 23 1
29 14 24 ar
30 24 25 ar
31 26 27 1
32 28 29 ar
33 28 32 ar
34 29 30 ar
35 30 31 ar
@<TRIPOS>SUBSTRUCTURE
1	RES1	1	GROUP	1 ****	RES
