# created with PyMOL 2.5.2
@<TRIPOS>MOLECULE
JAK2_6VN8_TargetProtein
26 29 1                 
SMALL
USER_CHARGES
@<TRIPOS>ATOM
1	  C1	58.369	-5.184	25.324	C.3	1	RES1	0.000	
2	  N1	55.024	-5.563	26.349	N.3	1	RES1	0.000	
3	  O1	55.882	-5.256	23.923	O.2	1	RES1	0.000	
4	  S1	55.724	-4.499	25.173	S.O2	1	RES1	0.000	
5	  C2	57.346	-4.244	25.891	C.3	1	RES1	0.000	
6	  N2	54.863	-10.615	24.803	N.1	1	RES1	0.000	
7	  O2	54.977	-3.269	25.219	O.2	1	RES1	0.000	
8	  C3	54.123	-6.707	26.075	C.3	1	RES1	0.000	
9	  N3	54.551	-8.535	27.754	N.2	1	RES1	0.000	
10	  C4	55.160	-7.692	26.694	C.3	1	RES1	0.000	
11	  N4	52.175	-11.453	30.365	N.2	1	RES1	0.000	
12	  C5	56.054	-8.490	25.760	C.3	1	RES1	0.000	
13	  C6	55.385	-9.661	25.201	C.1	1	RES1	0.000	
14	  C7	53.320	-9.121	27.714	C.2	1	RES1	0.000	
15	  C8	53.207	-9.890	28.851	C.2	1	RES1	0.000	
16	  C9	52.036	-10.668	29.246	C.2	1	RES1	0.000	
17	 C10	51.118	-12.181	30.739	C.2	1	RES1	0.000	
18	 N10	49.903	-12.246	30.192	N.2	1	RES1	0.000	
19	 N11	48.692	-11.327	28.310	N.2	1	RES1	0.000	
20	 N12	55.270	-8.939	28.828	N.2	1	RES1	0.000	
21	 C35	49.805	-11.453	29.091	C.2	1	RES1	0.000	
22	 C36	50.815	-10.653	28.554	C.2	1	RES1	0.000	
23	 C37	50.264	-10.037	27.394	C.2	1	RES1	0.000	
24	 C38	48.960	-10.473	27.298	C.2	1	RES1	0.000	
25	 C39	54.446	-9.721	29.522	C.2	1	RES1	0.000	
26	 C40	55.808	-6.427	27.303	C.3	1	RES1	0.000	
@<TRIPOS>BOND
1 1 5 1
2 2 8 1
3 2 26 1
4 2 4 1
5 3 4 2
6 4 5 1
7 4 7 2
8 6 13 3
9 8 10 1
10 9 10 1
11 9 14 ar
12 10 12 1
13 10 26 1
14 11 16 ar
15 12 13 1
16 14 15 ar
17 15 16 1
18 11 17 ar
19 17 18 ar
20 18 21 ar
21 19 21 ar
22 19 24 ar
23 9 20 ar
24 20 25 ar
25 21 22 ar
26 16 22 ar
27 22 23 ar
28 23 24 ar
29 15 25 ar
@<TRIPOS>SUBSTRUCTURE
1	RES1	1	GROUP	1 ****	RES
