# created with PyMOL 2.5.2
@<TRIPOS>MOLECULE
JAK2_6VN8_TargetProtein
26 29 1                 
SMALL
USER_CHARGES
@<TRIPOS>ATOM
1	  C1	56.865	-3.855	23.580	C.3	1	RES1	0.000	
2	  N1	55.775	-6.133	25.998	N.3	1	RES1	0.000	
3	  O1	54.443	-4.109	25.095	O.2	1	RES1	0.000	
4	  S1	55.586	-4.442	25.939	S.O2	1	RES1	0.000	
5	  C2	57.067	-3.961	25.082	C.3	1	RES1	0.000	
6	  N2	54.882	-11.063	24.766	N.1	1	RES1	0.000	
7	  O2	55.669	-3.935	27.299	O.2	1	RES1	0.000	
8	  C3	54.678	-7.123	25.860	C.3	1	RES1	0.000	
9	  N3	54.806	-8.827	27.722	N.2	1	RES1	0.000	
10	  C4	55.516	-8.167	26.634	C.3	1	RES1	0.000	
11	  N4	51.977	-11.217	30.421	N.2	1	RES1	0.000	
12	  C5	56.363	-9.132	25.809	C.3	1	RES1	0.000	
13	  C6	55.543	-10.238	25.236	C.1	1	RES1	0.000	
14	  C7	53.524	-9.333	27.633	C.2	1	RES1	0.000	
15	  C8	53.252	-9.941	28.858	C.2	1	RES1	0.000	
16	  C9	52.006	-10.546	29.256	C.2	1	RES1	0.000	
17	 C10	50.829	-11.800	30.800	C.2	1	RES1	0.000	
18	 N10	49.633	-11.798	30.153	N.2	1	RES1	0.000	
19	 N11	48.672	-10.999	28.112	N.2	1	RES1	0.000	
20	 N12	55.387	-9.078	28.936	N.2	1	RES1	0.000	
21	 C35	49.731	-11.135	29.003	C.2	1	RES1	0.000	
22	 C36	50.824	-10.509	28.469	C.2	1	RES1	0.000	
23	 C37	50.411	-9.972	27.175	C.2	1	RES1	0.000	
24	 C38	49.100	-10.322	27.003	C.2	1	RES1	0.000	
25	 C39	54.424	-9.734	29.618	C.2	1	RES1	0.000	
26	 C40	56.315	-6.936	27.116	C.3	1	RES1	0.000	
@<TRIPOS>BOND
1 1 5 1
2 2 8 1
3 2 26 1
4 2 4 1
5 3 4 2
6 4 5 1
7 4 7 2
8 6 13 3
9 8 10 1
10 9 10 1
11 9 14 ar
12 10 12 1
13 10 26 1
14 11 16 ar
15 12 13 1
16 14 15 ar
17 15 16 1
18 11 17 ar
19 17 18 ar
20 18 21 ar
21 19 21 ar
22 19 24 ar
23 9 20 ar
24 20 25 ar
25 21 22 ar
26 16 22 ar
27 22 23 ar
28 23 24 ar
29 15 25 ar
@<TRIPOS>SUBSTRUCTURE
1	RES1	1	GROUP	1 ****	RES
