# created with PyMOL 2.5.2
@<TRIPOS>MOLECULE
JAK2_6VN8_TargetProtein
26 29 1                 
SMALL
USER_CHARGES
@<TRIPOS>ATOM
1	  C1	57.169	-3.803	23.643	C.3	1	RES1	0.000	
2	  N1	55.781	-6.132	25.912	N.3	1	RES1	0.000	
3	  O1	54.620	-3.995	25.012	O.2	1	RES1	0.000	
4	  S1	55.691	-4.406	25.924	S.O2	1	RES1	0.000	
5	  C2	57.258	-3.990	25.160	C.3	1	RES1	0.000	
6	  N2	54.521	-11.073	24.891	N.1	1	RES1	0.000	
7	  O2	55.690	-3.946	27.303	O.2	1	RES1	0.000	
8	  C3	56.317	-6.964	27.048	C.3	1	RES1	0.000	
9	  N3	54.704	-8.778	27.717	N.2	1	RES1	0.000	
10	  C4	55.410	-8.132	26.553	C.3	1	RES1	0.000	
11	  N4	51.959	-11.185	30.537	N.2	1	RES1	0.000	
12	  C5	56.123	-9.147	25.679	C.3	1	RES1	0.000	
13	  C6	55.248	-10.215	25.222	C.1	1	RES1	0.000	
14	  C7	53.470	-9.335	27.671	C.2	1	RES1	0.000	
15	  C8	53.234	-9.844	28.964	C.2	1	RES1	0.000	
16	  C9	52.024	-10.529	29.328	C.2	1	RES1	0.000	
17	  N9	49.686	-11.910	30.137	N.2	1	RES1	0.000	
18	 C10	50.804	-11.813	30.846	C.2	1	RES1	0.000	
19	 N10	48.798	-11.188	28.021	N.2	1	RES1	0.000	
20	 N11	55.335	-8.913	28.927	N.2	1	RES1	0.000	
21	 C35	49.797	-11.270	28.953	C.2	1	RES1	0.000	
22	 C36	50.882	-10.566	28.459	C.2	1	RES1	0.000	
23	 C37	50.518	-10.102	27.190	C.2	1	RES1	0.000	
24	 C38	49.232	-10.488	26.928	C.2	1	RES1	0.000	
25	 C39	54.429	-9.553	29.659	C.2	1	RES1	0.000	
26	 C40	54.583	-7.026	25.889	C.3	1	RES1	0.000	
@<TRIPOS>BOND
1 1 5 1
2 2 8 1
3 2 26 1
4 2 4 1
5 3 4 2
6 4 5 1
7 4 7 2
8 6 13 3
9 8 10 1
10 9 10 1
11 9 14 ar
12 10 12 1
13 10 26 1
14 11 16 ar
15 12 13 1
16 14 15 ar
17 15 16 1
18 11 18 ar
19 17 18 ar
20 19 21 ar
21 19 24 ar
22 9 20 ar
23 20 25 ar
24 17 21 ar
25 21 22 ar
26 16 22 ar
27 22 23 ar
28 23 24 ar
29 15 25 ar
@<TRIPOS>SUBSTRUCTURE
1	RES1	1	GROUP	1 ****	RES
