# created with PyMOL 2.5.2
@<TRIPOS>MOLECULE
JAK2_6WTQ_TargetProtein
34 38 1                 
SMALL
USER_CHARGES
@<TRIPOS>ATOM
1	  N2	24.559	-12.871	5.972	N.1	1	RES1	0.000	
2	  N3	21.162	-13.385	6.949	N.2	1	RES1	0.000	
3	  O3	21.712	-22.229	6.512	O.2	1	RES1	0.000	
4	  C4	21.665	-12.330	7.846	C.3	1	RES1	0.000	
5	  N4	20.234	-16.192	3.500	N.2	1	RES1	0.000	
6	  C5	23.172	-12.527	8.186	C.3	1	RES1	0.000	
7	  N5	20.012	-17.966	2.036	N.pl3	1	RES1	0.000	
8	  C6	23.958	-12.728	6.957	C.1	1	RES1	0.000	
9	  N6	20.963	-23.726	4.932	N.pl3	1	RES1	0.000	
10	  C7	20.991	-13.288	5.596	C.2	1	RES1	0.000	
11	  N7	22.087	-27.719	5.756	N.3	1	RES1	0.000	
12	  C8	20.540	-14.506	5.190	C.2	1	RES1	0.000	
13	  C9	20.161	-14.865	3.831	C.2	1	RES1	0.000	
14	 C10	19.902	-16.607	2.264	C.2	1	RES1	0.000	
15	 N10	19.492	-15.770	1.261	N.2	1	RES1	0.000	
16	 C11	20.336	-19.115	2.830	C.2	1	RES1	0.000	
17	 N11	19.119	-13.468	0.796	N.2	1	RES1	0.000	
18	 C12	20.316	-20.419	2.319	C.2	1	RES1	0.000	
19	 N12	20.834	-14.571	7.468	N.2	1	RES1	0.000	
20	 C13	20.634	-21.527	3.117	C.2	1	RES1	0.000	
21	 C14	20.895	-21.322	4.493	C.2	1	RES1	0.000	
22	 C15	21.234	-22.448	5.400	C.2	1	RES1	0.000	
23	 C16	21.268	-24.925	5.711	C.3	1	RES1	0.000	
24	 C17	22.735	-25.346	5.439	C.3	1	RES1	0.000	
25	 C18	23.036	-26.688	6.161	C.3	1	RES1	0.000	
26	 C32	20.712	-27.343	6.073	C.3	1	RES1	0.000	
27	 C33	20.317	-26.059	5.345	C.3	1	RES1	0.000	
28	 C34	20.905	-20.035	5.001	C.2	1	RES1	0.000	
29	 C35	20.591	-18.939	4.174	C.2	1	RES1	0.000	
30	 C36	19.469	-14.465	1.611	C.2	1	RES1	0.000	
31	 C37	19.776	-13.926	2.856	C.2	1	RES1	0.000	
32	 C38	19.601	-12.519	2.723	C.2	1	RES1	0.000	
33	 C39	19.173	-12.273	1.455	C.2	1	RES1	0.000	
34	 C40	20.437	-15.270	6.381	C.2	1	RES1	0.000	
@<TRIPOS>BOND
1 1 8 3
2 2 4 1
3 2 10 ar
4 4 6 1
5 5 13 ar
6 6 8 1
7 10 12 ar
8 12 13 1
9 5 14 ar
10 7 14 1
11 14 15 ar
12 15 30 ar
13 7 16 1
14 16 18 ar
15 16 29 ar
16 17 30 ar
17 17 33 ar
18 18 20 ar
19 2 19 ar
20 19 34 ar
21 20 21 ar
22 21 22 1
23 21 28 ar
24 3 22 2
25 9 22 1
26 9 23 1
27 23 24 1
28 23 27 1
29 24 25 1
30 11 25 1
31 11 26 1
32 26 27 1
33 28 29 ar
34 30 31 ar
35 13 31 ar
36 31 32 ar
37 32 33 ar
38 12 34 ar
@<TRIPOS>SUBSTRUCTURE
1	RES1	1	GROUP	1 ****	RES
