# created with PyMOL 2.5.2
@<TRIPOS>MOLECULE
CDK6_2EUF_TargetProtein
33 37 1                 
SMALL
USER_CHARGES
@<TRIPOS>ATOM
1	  C1	34.703	27.672	59.510	C.3	1	RES1	0.000	
2	  N1	31.480	22.900	63.498	N.2	1	RES1	0.000	
3	  O1	32.647	28.757	60.155	O.2	1	RES1	0.000	
4	  C2	33.272	27.709	60.024	C.2	1	RES1	0.000	
5	  N2	30.347	20.957	62.669	N.pl3	1	RES1	0.000	
6	  C3	32.641	26.407	60.380	C.2	1	RES1	0.000	
7	  N3	27.886	16.856	59.649	N.pl3	1	RES1	0.000	
8	  C4	32.651	25.977	61.676	C.2	1	RES1	0.000	
9	  N4	26.427	14.694	58.367	N.3	1	RES1	0.000	
10	  C5	33.223	26.767	62.847	C.3	1	RES1	0.000	
11	  C6	32.036	24.679	61.978	C.2	1	RES1	0.000	
12	  C7	32.029	24.090	63.221	C.2	1	RES1	0.000	
13	  N7	29.646	18.756	62.392	N.2	1	RES1	0.000	
14	  C8	30.910	22.223	62.470	C.2	1	RES1	0.000	
15	  N8	30.907	22.675	61.222	N.2	1	RES1	0.000	
16	  C9	29.752	19.982	61.855	C.2	1	RES1	0.000	
17	  N9	31.414	24.393	59.619	N.2	1	RES1	0.000	
18	  O9	32.071	26.037	58.132	O.2	1	RES1	0.000	
19	 C10	29.220	20.247	60.585	C.2	1	RES1	0.000	
20	 C11	28.611	19.228	59.857	C.2	1	RES1	0.000	
21	 C12	28.492	17.952	60.360	C.2	1	RES1	0.000	
22	 C13	27.188	17.084	58.380	C.3	1	RES1	0.000	
23	 C14	27.001	15.785	57.590	C.3	1	RES1	0.000	
24	 C34	27.285	14.427	59.517	C.3	1	RES1	0.000	
25	 C35	27.472	15.651	60.410	C.3	1	RES1	0.000	
26	 C36	29.040	17.777	61.652	C.2	1	RES1	0.000	
27	 C37	31.438	23.894	60.961	C.2	1	RES1	0.000	
28	 C38	30.763	23.594	58.559	C.3	1	RES1	0.000	
29	 C39	29.811	24.327	57.605	C.3	1	RES1	0.000	
30	 C40	28.525	23.505	57.599	C.3	1	RES1	0.000	
31	 C41	28.987	22.114	57.971	C.3	1	RES1	0.000	
32	 C42	30.019	22.345	59.045	C.3	1	RES1	0.000	
33	 C43	32.006	25.602	59.272	C.2	1	RES1	0.000	
@<TRIPOS>BOND
1 1 4 1
2 2 12 ar
3 2 14 ar
4 3 4 2
5 4 6 1
6 5 14 1
7 5 16 1
8 6 8 ar
9 6 33 ar
10 7 25 1
11 8 10 1
12 8 11 ar
13 11 12 ar
14 13 16 ar
15 14 15 ar
16 16 19 ar
17 19 20 ar
18 20 21 ar
19 7 21 1
20 21 26 ar
21 7 22 1
22 22 23 1
23 9 23 1
24 9 24 1
25 24 25 1
26 13 26 ar
27 11 27 ar
28 15 27 ar
29 17 27 ar
30 17 28 1
31 28 29 1
32 28 32 1
33 29 30 1
34 30 31 1
35 31 32 1
36 17 33 ar
37 18 33 2
@<TRIPOS>SUBSTRUCTURE
1	RES1	1	GROUP	1 ****	RES
