# created with PyMOL 2.5.2
@<TRIPOS>MOLECULE
JAK2_6VN8_TargetProtein
26 29 1                 
SMALL
USER_CHARGES
@<TRIPOS>ATOM
1	  C1	56.676	-3.894	23.519	C.3	1	RES1	0.000	
2	  N1	55.830	-6.133	26.008	N.3	1	RES1	0.000	
3	  O1	55.821	-3.927	27.341	O.2	1	RES1	0.000	
4	  S1	55.633	-4.448	26.009	S.O2	1	RES1	0.000	
5	  C2	57.038	-4.011	25.009	C.3	1	RES1	0.000	
6	  N2	54.574	-10.990	24.898	N.1	1	RES1	0.000	
7	  O2	54.428	-4.148	25.250	O.2	1	RES1	0.000	
8	  C3	54.687	-7.121	25.972	C.3	1	RES1	0.000	
9	  N3	54.875	-8.868	27.739	N.2	1	RES1	0.000	
10	  C4	55.577	-8.164	26.667	C.3	1	RES1	0.000	
11	  N4	51.954	-11.110	30.480	N.2	1	RES1	0.000	
12	  C5	56.249	-9.159	25.650	C.3	1	RES1	0.000	
13	  C6	55.344	-10.207	25.198	C.1	1	RES1	0.000	
14	  C7	53.587	-9.362	27.650	C.2	1	RES1	0.000	
15	  C8	53.255	-9.875	28.888	C.2	1	RES1	0.000	
16	  C9	52.005	-10.498	29.238	C.2	1	RES1	0.000	
17	 C10	50.748	-11.679	30.828	C.2	1	RES1	0.000	
18	 N11	49.635	-11.765	30.108	N.2	1	RES1	0.000	
19	 N12	48.750	-11.105	27.999	N.2	1	RES1	0.000	
20	 N13	55.394	-9.018	28.989	N.2	1	RES1	0.000	
21	 C37	49.754	-11.148	28.924	C.2	1	RES1	0.000	
22	 C38	50.886	-10.528	28.406	C.2	1	RES1	0.000	
23	 C39	50.507	-10.083	27.128	C.2	1	RES1	0.000	
24	 C40	49.221	-10.455	26.879	C.2	1	RES1	0.000	
25	 C41	54.438	-9.648	29.677	C.2	1	RES1	0.000	
26	 C42	56.411	-6.960	27.120	C.3	1	RES1	0.000	
@<TRIPOS>BOND
1 1 5 1
2 2 8 1
3 2 26 1
4 3 4 2
5 2 4 1
6 4 5 1
7 4 7 2
8 6 13 3
9 8 10 1
10 9 10 1
11 9 14 ar
12 10 12 1
13 10 26 1
14 11 16 ar
15 12 13 1
16 14 15 ar
17 15 16 1
18 11 17 ar
19 17 18 ar
20 18 21 ar
21 19 21 ar
22 19 24 ar
23 9 20 ar
24 20 25 ar
25 21 22 ar
26 16 22 ar
27 22 23 ar
28 23 24 ar
29 15 25 ar
@<TRIPOS>SUBSTRUCTURE
1	RES1	1	GROUP	1 ****	RES
