# created with PyMOL 2.5.2
@<TRIPOS>MOLECULE
JAK2_6VN8_TargetProtein
26 29 1                 
SMALL
USER_CHARGES
@<TRIPOS>ATOM
1	  C1	56.695	-3.887	23.545	C.3	1	RES1	0.000	
2	  N1	55.759	-6.123	26.009	N.3	1	RES1	0.000	
3	  O1	54.370	-4.121	25.171	O.2	1	RES1	0.000	
4	  S1	55.541	-4.435	25.962	S.O2	1	RES1	0.000	
5	  C2	57.016	-3.963	25.034	C.3	1	RES1	0.000	
6	  N2	54.800	-11.173	24.873	N.1	1	RES1	0.000	
7	  O2	55.677	-3.926	27.341	O.2	1	RES1	0.000	
8	  C3	54.645	-7.137	25.918	C.3	1	RES1	0.000	
9	  N3	54.833	-8.826	27.771	N.2	1	RES1	0.000	
10	  C4	55.553	-8.174	26.631	C.3	1	RES1	0.000	
11	  N4	51.960	-11.210	30.447	N.2	1	RES1	0.000	
12	  C5	56.298	-9.205	25.813	C.3	1	RES1	0.000	
13	  C6	55.467	-10.301	25.325	C.1	1	RES1	0.000	
14	  C7	53.539	-9.308	27.696	C.2	1	RES1	0.000	
15	  C8	53.293	-9.920	28.886	C.2	1	RES1	0.000	
16	  C9	52.037	-10.532	29.235	C.2	1	RES1	0.000	
17	 C10	50.801	-11.758	30.778	C.2	1	RES1	0.000	
18	 N11	49.622	-11.771	30.101	N.2	1	RES1	0.000	
19	 N12	48.731	-10.921	28.017	N.2	1	RES1	0.000	
20	 N13	55.456	-9.143	28.887	N.2	1	RES1	0.000	
21	 C37	49.760	-11.107	28.913	C.2	1	RES1	0.000	
22	 C38	50.875	-10.479	28.436	C.2	1	RES1	0.000	
23	 C39	50.516	-9.942	27.140	C.2	1	RES1	0.000	
24	 C40	49.166	-10.245	26.926	C.2	1	RES1	0.000	
25	 C41	54.531	-9.780	29.601	C.2	1	RES1	0.000	
26	 C42	56.340	-6.923	27.115	C.3	1	RES1	0.000	
@<TRIPOS>BOND
1 1 5 1
2 2 8 1
3 2 26 1
4 3 4 2
5 2 4 1
6 4 5 1
7 4 7 2
8 6 13 3
9 8 10 1
10 9 10 1
11 9 14 ar
12 10 12 1
13 10 26 1
14 11 16 ar
15 12 13 1
16 14 15 ar
17 15 16 1
18 11 17 ar
19 17 18 ar
20 18 21 ar
21 19 21 ar
22 19 24 ar
23 9 20 ar
24 20 25 ar
25 21 22 ar
26 16 22 ar
27 22 23 ar
28 23 24 ar
29 15 25 ar
@<TRIPOS>SUBSTRUCTURE
1	RES1	1	GROUP	1 ****	RES
