# created with PyMOL 2.5.2
@<TRIPOS>MOLECULE
BRD4_6YQN_TargetProtein
24 27 1                 
SMALL
USER_CHARGES
@<TRIPOS>ATOM
1	 CL1	25.748	17.902	-6.989	Cl	1	RES1	0.000	
2	  C1	26.031	15.067	1.305	C.3	1	RES1	0.000	
3	  N1	30.805	16.824	0.013	N.2	1	RES1	0.000	
4	  S1	28.507	16.316	1.360	S.2	1	RES1	0.000	
5	  C2	27.231	15.502	0.533	C.2	1	RES1	0.000	
6	  N2	32.700	17.784	0.539	N.2	1	RES1	0.000	
7	  C3	27.515	15.282	-0.804	C.2	1	RES1	0.000	
8	  N3	32.927	16.971	-0.540	N.2	1	RES1	0.000	
9	  C4	26.614	14.560	-1.749	C.3	1	RES1	0.000	
10	  C5	28.791	15.909	-1.184	C.2	1	RES1	0.000	
11	  C6	29.471	16.354	-0.071	C.2	1	RES1	0.000	
12	  C7	31.437	17.680	0.886	C.2	1	RES1	0.000	
13	  C8	30.796	18.499	1.971	C.3	1	RES1	0.000	
14	  C9	31.792	16.386	-0.842	C.2	1	RES1	0.000	
15	 C10	31.547	15.332	-1.864	C.3	1	RES1	0.000	
16	 C11	32.829	14.962	-2.597	C.3	1	RES1	0.000	
17	 N11	30.574	15.771	-2.878	N.2	1	RES1	0.000	
18	 C35	29.344	15.987	-2.547	C.2	1	RES1	0.000	
19	 C36	28.407	16.489	-3.663	C.2	1	RES1	0.000	
20	 C37	27.332	17.340	-3.382	C.2	1	RES1	0.000	
21	 C38	26.501	17.772	-4.419	C.2	1	RES1	0.000	
22	 C39	26.779	17.366	-5.724	C.2	1	RES1	0.000	
23	 C40	27.842	16.522	-6.011	C.2	1	RES1	0.000	
24	 C41	28.682	16.101	-4.952	C.2	1	RES1	0.000	
@<TRIPOS>BOND
1 1 22 1
2 2 5 1
3 3 11 1
4 3 12 ar
5 3 14 ar
6 4 5 ar
7 4 11 ar
8 5 7 ar
9 6 8 ar
10 6 12 ar
11 7 9 1
12 7 10 ar
13 8 14 ar
14 10 11 ar
15 12 13 1
16 14 15 1
17 15 16 1
18 15 17 1
19 17 18 2
20 10 18 1
21 18 19 1
22 19 20 ar
23 19 24 ar
24 20 21 ar
25 21 22 ar
26 22 23 ar
27 23 24 ar
@<TRIPOS>SUBSTRUCTURE
1	RES1	1	GROUP	1 ****	RES
