# created with PyMOL 2.5.2
@<TRIPOS>MOLECULE
BRD4_6YQN_TargetProtein
24 27 1                 
SMALL
USER_CHARGES
@<TRIPOS>ATOM
1	 CL1	25.733	17.905	-6.997	Cl	1	RES1	0.000	
2	  C1	26.012	15.090	1.286	C.3	1	RES1	0.000	
3	  N1	30.776	16.831	0.015	N.2	1	RES1	0.000	
4	  S1	28.518	16.311	1.364	S.2	1	RES1	0.000	
5	  C2	27.211	15.487	0.517	C.2	1	RES1	0.000	
6	  N2	32.710	17.775	0.541	N.2	1	RES1	0.000	
7	  C3	27.531	15.304	-0.813	C.2	1	RES1	0.000	
8	  N3	32.919	16.965	-0.523	N.2	1	RES1	0.000	
9	  C4	26.620	14.560	-1.728	C.3	1	RES1	0.000	
10	  C5	28.795	15.882	-1.186	C.2	1	RES1	0.000	
11	  C6	29.463	16.365	-0.067	C.2	1	RES1	0.000	
12	  C7	31.431	17.695	0.873	C.2	1	RES1	0.000	
13	  C8	30.810	18.507	1.941	C.3	1	RES1	0.000	
14	  C9	31.787	16.368	-0.848	C.2	1	RES1	0.000	
15	 C10	31.554	15.348	-1.855	C.3	1	RES1	0.000	
16	 C11	32.841	14.944	-2.596	C.3	1	RES1	0.000	
17	 N12	30.574	15.776	-2.877	N.2	1	RES1	0.000	
18	 C35	29.337	16.019	-2.565	C.2	1	RES1	0.000	
19	 C36	28.445	16.466	-3.652	C.2	1	RES1	0.000	
20	 C37	27.339	17.301	-3.383	C.2	1	RES1	0.000	
21	 C38	26.495	17.749	-4.373	C.2	1	RES1	0.000	
22	 C39	26.743	17.379	-5.712	C.2	1	RES1	0.000	
23	 C40	27.862	16.550	-5.997	C.2	1	RES1	0.000	
24	 C41	28.697	16.104	-4.973	C.2	1	RES1	0.000	
@<TRIPOS>BOND
1 1 22 1
2 2 5 1
3 3 11 1
4 3 12 ar
5 3 14 ar
6 4 5 ar
7 4 11 ar
8 5 7 ar
9 6 8 ar
10 6 12 ar
11 7 9 1
12 7 10 ar
13 8 14 ar
14 10 11 ar
15 12 13 1
16 14 15 1
17 15 16 1
18 15 17 1
19 17 18 2
20 10 18 1
21 18 19 1
22 19 20 ar
23 19 24 ar
24 20 21 ar
25 21 22 ar
26 22 23 ar
27 23 24 ar
@<TRIPOS>SUBSTRUCTURE
1	RES1	1	GROUP	1 ****	RES
