# created with PyMOL 2.5.2
@<TRIPOS>MOLECULE
PD_5N2D_TargetProtein
33 35 1                 
SMALL
USER_CHARGES
@<TRIPOS>ATOM
1	  C1	-0.561	8.389	-23.649	C.3	1	RES1	0.000	
2	  N1	0.554	11.359	-26.351	N.3	1	RES1	0.000	
3	  O1	-0.261	9.697	-24.115	O.3	1	RES1	0.000	
4	  C2	-1.270	10.674	-24.000	C.2	1	RES1	0.000	
5	  N2	0.517	9.513	-28.252	N.pl3	1	RES1	0.000	
6	  O2	-4.730	11.380	-22.695	O.3	1	RES1	0.000	
7	  C3	-2.505	10.439	-23.389	C.2	1	RES1	0.000	
8	  O3	-1.555	14.244	-24.936	O.3	1	RES1	0.000	
9	  C4	-3.462	11.457	-23.312	C.2	1	RES1	0.000	
10	  O4	-0.901	8.582	-26.698	O.2	1	RES1	0.000	
11	  C5	-5.207	10.028	-22.418	C.3	1	RES1	0.000	
12	  C6	-6.485	10.148	-21.619	C.2	1	RES1	0.000	
13	  C7	-6.421	9.807	-20.257	C.2	1	RES1	0.000	
14	  C8	-7.573	9.885	-19.455	C.2	1	RES1	0.000	
15	  C9	-8.759	10.328	-19.979	C.2	1	RES1	0.000	
16	 C10	-8.869	10.658	-21.338	C.2	1	RES1	0.000	
17	 C11	-10.166	11.143	-21.823	C.2	1	RES1	0.000	
18	 C12	-10.831	10.495	-22.903	C.2	1	RES1	0.000	
19	 C13	-12.056	10.956	-23.363	C.2	1	RES1	0.000	
20	 C14	-12.642	12.092	-22.776	C.2	1	RES1	0.000	
21	 C15	-12.000	12.725	-21.708	C.2	1	RES1	0.000	
22	 C16	-10.794	12.264	-21.258	C.2	1	RES1	0.000	
23	 C17	-7.748	10.552	-22.173	C.2	1	RES1	0.000	
24	 C18	-7.806	10.887	-23.655	C.3	1	RES1	0.000	
25	 C19	-3.176	12.724	-23.809	C.2	1	RES1	0.000	
26	 C20	-1.929	12.973	-24.418	C.2	1	RES1	0.000	
27	 C21	-2.541	15.282	-24.895	C.3	1	RES1	0.000	
28	 C22	-0.961	11.946	-24.537	C.2	1	RES1	0.000	
29	 C23	0.353	12.219	-25.186	C.3	1	RES1	0.000	
30	 C24	-0.293	11.769	-27.468	C.3	1	RES1	0.000	
31	 C25	-0.338	10.682	-28.562	C.3	1	RES1	0.000	
32	 C26	0.111	8.556	-27.351	C.2	1	RES1	0.000	
33	 C27	1.120	7.481	-27.189	C.3	1	RES1	0.000	
@<TRIPOS>BOND
1 1 3 1
2 2 29 1
3 2 30 1
4 3 4 1
5 4 7 ar
6 4 28 ar
7 5 31 1
8 5 32 1
9 6 9 1
10 6 11 1
11 7 9 ar
12 11 12 1
13 12 13 ar
14 13 14 ar
15 14 15 ar
16 15 16 ar
17 16 17 1
18 16 23 ar
19 17 18 ar
20 17 22 ar
21 18 19 ar
22 19 20 ar
23 20 21 ar
24 21 22 ar
25 12 23 ar
26 23 24 1
27 9 25 ar
28 25 26 ar
29 8 26 1
30 26 28 ar
31 8 27 1
32 28 29 1
33 30 31 1
34 10 32 2
35 32 33 1
@<TRIPOS>SUBSTRUCTURE
1	RES1	1	GROUP	1 ****	RES
