# created with PyMOL 2.5.2
@<TRIPOS>MOLECULE
PD_5N2D_TargetProtein
33 35 1                 
SMALL
USER_CHARGES
@<TRIPOS>ATOM
1	  C1	-0.581	8.375	-23.658	C.3	1	RES1	0.000	
2	  N1	0.560	11.352	-26.379	N.3	1	RES1	0.000	
3	  O1	-0.303	9.693	-24.138	O.3	1	RES1	0.000	
4	  C2	-1.286	10.670	-24.000	C.2	1	RES1	0.000	
5	  N2	0.536	9.556	-28.245	N.pl3	1	RES1	0.000	
6	  O2	-4.724	11.341	-22.667	O.3	1	RES1	0.000	
7	  C3	-2.494	10.445	-23.356	C.2	1	RES1	0.000	
8	  O3	-1.580	14.214	-24.979	O.3	1	RES1	0.000	
9	  C4	-3.455	11.448	-23.254	C.2	1	RES1	0.000	
10	  O4	-0.893	8.589	-26.727	O.2	1	RES1	0.000	
11	  C5	-5.199	10.027	-22.376	C.3	1	RES1	0.000	
12	  C6	-6.510	10.155	-21.608	C.2	1	RES1	0.000	
13	  C7	-6.452	9.818	-20.235	C.2	1	RES1	0.000	
14	  C8	-7.593	9.911	-19.433	C.2	1	RES1	0.000	
15	  C9	-8.753	10.325	-20.004	C.2	1	RES1	0.000	
16	 C10	-8.877	10.668	-21.381	C.2	1	RES1	0.000	
17	 C11	-10.140	11.143	-21.854	C.2	1	RES1	0.000	
18	 C12	-10.849	10.536	-22.912	C.2	1	RES1	0.000	
19	 C13	-12.069	10.977	-23.358	C.2	1	RES1	0.000	
20	 C14	-12.655	12.074	-22.748	C.2	1	RES1	0.000	
21	 C15	-12.015	12.728	-21.693	C.2	1	RES1	0.000	
22	 C16	-10.782	12.279	-21.237	C.2	1	RES1	0.000	
23	 C17	-7.706	10.524	-22.182	C.2	1	RES1	0.000	
24	 C18	-7.781	10.878	-23.665	C.3	1	RES1	0.000	
25	 C19	-3.169	12.714	-23.769	C.2	1	RES1	0.000	
26	 C20	-1.932	12.956	-24.418	C.2	1	RES1	0.000	
27	 C21	-2.548	15.262	-24.926	C.3	1	RES1	0.000	
28	 C22	-1.000	11.910	-24.534	C.2	1	RES1	0.000	
29	 C23	0.332	12.205	-25.206	C.3	1	RES1	0.000	
30	 C24	-0.305	11.774	-27.503	C.3	1	RES1	0.000	
31	 C25	-0.316	10.679	-28.588	C.3	1	RES1	0.000	
32	 C26	0.151	8.585	-27.338	C.2	1	RES1	0.000	
33	 C27	1.197	7.516	-27.162	C.3	1	RES1	0.000	
@<TRIPOS>BOND
1 1 3 1
2 2 29 1
3 2 30 1
4 3 4 1
5 4 7 ar
6 4 28 ar
7 5 31 1
8 5 32 1
9 6 9 1
10 6 11 1
11 7 9 ar
12 11 12 1
13 12 13 ar
14 13 14 ar
15 14 15 ar
16 15 16 ar
17 16 17 1
18 16 23 ar
19 17 18 ar
20 17 22 ar
21 18 19 ar
22 19 20 ar
23 20 21 ar
24 21 22 ar
25 12 23 ar
26 23 24 1
27 9 25 ar
28 25 26 ar
29 8 26 1
30 26 28 ar
31 8 27 1
32 28 29 1
33 30 31 1
34 10 32 2
35 32 33 1
@<TRIPOS>SUBSTRUCTURE
1	RES1	1	GROUP	1 ****	RES
