# created with PyMOL 2.5.2
@<TRIPOS>MOLECULE
PD_5N2D_TargetProtein
33 35 1                 
SMALL
USER_CHARGES
@<TRIPOS>ATOM
1	  C1	-0.592	8.412	-23.651	C.3	1	RES1	0.000	
2	  N1	0.555	11.340	-26.353	N.3	1	RES1	0.000	
3	  O1	-0.256	9.699	-24.127	O.3	1	RES1	0.000	
4	  C2	-1.284	10.679	-23.986	C.2	1	RES1	0.000	
5	  N2	0.497	9.502	-28.261	N.pl3	1	RES1	0.000	
6	  O2	-4.730	11.387	-22.705	O.3	1	RES1	0.000	
7	  C3	-2.526	10.462	-23.388	C.2	1	RES1	0.000	
8	  O3	-1.541	14.252	-24.935	O.3	1	RES1	0.000	
9	  C4	-3.469	11.489	-23.274	C.2	1	RES1	0.000	
10	  O4	-0.973	8.580	-26.700	O.2	1	RES1	0.000	
11	  C5	-5.206	10.040	-22.438	C.3	1	RES1	0.000	
12	  C6	-6.477	10.140	-21.608	C.2	1	RES1	0.000	
13	  C7	-6.438	9.797	-20.257	C.2	1	RES1	0.000	
14	  C8	-7.533	9.859	-19.449	C.2	1	RES1	0.000	
15	  C9	-8.747	10.304	-19.982	C.2	1	RES1	0.000	
16	 C10	-8.880	10.659	-21.326	C.2	1	RES1	0.000	
17	 C11	-10.168	11.134	-21.813	C.2	1	RES1	0.000	
18	 C12	-10.812	10.484	-22.880	C.2	1	RES1	0.000	
19	 C13	-12.027	10.949	-23.371	C.2	1	RES1	0.000	
20	 C14	-12.639	12.064	-22.809	C.2	1	RES1	0.000	
21	 C15	-11.985	12.730	-21.757	C.2	1	RES1	0.000	
22	 C16	-10.764	12.271	-21.297	C.2	1	RES1	0.000	
23	 C17	-7.716	10.551	-22.176	C.2	1	RES1	0.000	
24	 C18	-7.805	10.911	-23.636	C.3	1	RES1	0.000	
25	 C19	-3.154	12.736	-23.780	C.2	1	RES1	0.000	
26	 C20	-1.932	12.998	-24.406	C.2	1	RES1	0.000	
27	 C21	-2.535	15.297	-24.886	C.3	1	RES1	0.000	
28	 C22	-0.972	11.952	-24.526	C.2	1	RES1	0.000	
29	 C23	0.359	12.221	-25.181	C.3	1	RES1	0.000	
30	 C24	-0.299	11.739	-27.484	C.3	1	RES1	0.000	
31	 C25	-0.355	10.671	-28.556	C.3	1	RES1	0.000	
32	 C26	0.098	8.563	-27.370	C.2	1	RES1	0.000	
33	 C27	1.119	7.459	-27.172	C.3	1	RES1	0.000	
@<TRIPOS>BOND
1 1 3 1
2 2 29 1
3 2 30 1
4 3 4 1
5 4 7 ar
6 4 28 ar
7 5 31 1
8 5 32 1
9 6 9 1
10 6 11 1
11 7 9 ar
12 11 12 1
13 12 13 ar
14 13 14 ar
15 14 15 ar
16 15 16 ar
17 16 17 1
18 16 23 ar
19 17 18 ar
20 17 22 ar
21 18 19 ar
22 19 20 ar
23 20 21 ar
24 21 22 ar
25 12 23 ar
26 23 24 1
27 9 25 ar
28 25 26 ar
29 8 26 1
30 26 28 ar
31 8 27 1
32 28 29 1
33 30 31 1
34 10 32 2
35 32 33 1
@<TRIPOS>SUBSTRUCTURE
1	RES1	1	GROUP	1 ****	RES
