# created with PyMOL 2.5.2
@<TRIPOS>MOLECULE
PD_5N2D_TargetProtein
33 35 1                 
SMALL
USER_CHARGES
@<TRIPOS>ATOM
1	  C1	-0.614	8.353	-23.723	C.3	1	RES1	0.000	
2	  N1	0.548	11.301	-26.349	N.3	1	RES1	0.000	
3	  O1	-0.282	9.655	-24.200	O.3	1	RES1	0.000	
4	  C2	-1.267	10.680	-23.999	C.2	1	RES1	0.000	
5	  N2	0.437	9.522	-28.224	N.pl3	1	RES1	0.000	
6	  O2	-4.712	11.425	-22.687	O.3	1	RES1	0.000	
7	  C3	-2.507	10.439	-23.391	C.2	1	RES1	0.000	
8	  O3	-1.475	14.230	-24.917	O.3	1	RES1	0.000	
9	  C4	-3.404	11.495	-23.263	C.2	1	RES1	0.000	
10	  O4	-0.973	8.594	-26.662	O.2	1	RES1	0.000	
11	  C5	-5.216	10.078	-22.484	C.3	1	RES1	0.000	
12	  C6	-6.469	10.193	-21.652	C.2	1	RES1	0.000	
13	  C7	-6.417	9.827	-20.311	C.2	1	RES1	0.000	
14	  C8	-7.524	9.901	-19.485	C.2	1	RES1	0.000	
15	  C9	-8.746	10.342	-20.004	C.2	1	RES1	0.000	
16	 C10	-8.851	10.725	-21.339	C.2	1	RES1	0.000	
17	 C11	-10.167	11.139	-21.841	C.2	1	RES1	0.000	
18	 C12	-10.781	10.465	-22.918	C.2	1	RES1	0.000	
19	 C13	-12.053	10.865	-23.367	C.2	1	RES1	0.000	
20	 C14	-12.721	11.910	-22.757	C.2	1	RES1	0.000	
21	 C15	-12.137	12.587	-21.697	C.2	1	RES1	0.000	
22	 C16	-10.866	12.199	-21.245	C.2	1	RES1	0.000	
23	 C17	-7.697	10.683	-22.178	C.2	1	RES1	0.000	
24	 C18	-7.802	11.122	-23.631	C.3	1	RES1	0.000	
25	 C19	-3.108	12.745	-23.779	C.2	1	RES1	0.000	
26	 C20	-1.859	12.979	-24.388	C.2	1	RES1	0.000	
27	 C21	-2.435	15.286	-24.884	C.3	1	RES1	0.000	
28	 C22	-0.936	11.949	-24.503	C.2	1	RES1	0.000	
29	 C23	0.410	12.154	-25.172	C.3	1	RES1	0.000	
30	 C24	-0.311	11.751	-27.475	C.3	1	RES1	0.000	
31	 C25	-0.402	10.680	-28.559	C.3	1	RES1	0.000	
32	 C26	0.068	8.569	-27.312	C.2	1	RES1	0.000	
33	 C27	1.082	7.486	-27.143	C.3	1	RES1	0.000	
@<TRIPOS>BOND
1 1 3 1
2 2 29 1
3 2 30 1
4 3 4 1
5 4 7 ar
6 4 28 ar
7 5 31 1
8 5 32 1
9 6 9 1
10 6 11 1
11 7 9 ar
12 11 12 1
13 12 13 ar
14 13 14 ar
15 14 15 ar
16 15 16 ar
17 16 17 1
18 16 23 ar
19 17 18 ar
20 17 22 ar
21 18 19 ar
22 19 20 ar
23 20 21 ar
24 21 22 ar
25 12 23 ar
26 23 24 1
27 9 25 ar
28 25 26 ar
29 8 26 1
30 26 28 ar
31 8 27 1
32 28 29 1
33 30 31 1
34 10 32 2
35 32 33 1
@<TRIPOS>SUBSTRUCTURE
1	RES1	1	GROUP	1 ****	RES
