# created with PyMOL 2.5.2
@<TRIPOS>MOLECULE
SHP2_5EHR_TargetProtein
23 25 1                 
SMALL
USER_CHARGES
@<TRIPOS>ATOM
1	 CL1	17.463	40.663	8.952	Cl	1	RES1	0.000	
2	 CL2	20.461	41.325	8.012	Cl	1	RES1	0.000	
3	  C1	28.475	42.453	1.371	C.3	1	RES1	0.000	
4	  N1	27.922	43.122	3.640	N.3	1	RES1	0.000	
5	  C2	27.388	42.465	2.424	C.3	1	RES1	0.000	
6	  N2	24.696	41.762	3.347	N.pl3	1	RES1	0.000	
7	  C3	27.008	41.020	2.821	C.3	1	RES1	0.000	
8	  N3	21.041	41.856	4.119	N.2	1	RES1	0.000	
9	  C4	25.827	40.953	3.816	C.3	1	RES1	0.000	
10	  C5	23.431	41.435	3.934	C.2	1	RES1	0.000	
11	  C6	22.228	42.115	3.587	C.2	1	RES1	0.000	
12	  C7	20.961	40.838	5.013	C.2	1	RES1	0.000	
13	  N7	22.129	39.052	6.272	N.pl3	1	RES1	0.000	
14	  C8	19.626	40.534	5.528	C.2	1	RES1	0.000	
15	  N8	23.348	40.430	4.843	N.2	1	RES1	0.000	
16	  C9	18.672	39.994	4.615	C.2	1	RES1	0.000	
17	 C10	17.389	39.727	5.085	C.2	1	RES1	0.000	
18	 C11	17.031	39.922	6.389	C.2	1	RES1	0.000	
19	 C39	17.979	40.434	7.318	C.2	1	RES1	0.000	
20	 C40	19.297	40.706	6.865	C.2	1	RES1	0.000	
21	 C41	22.144	40.114	5.377	C.2	1	RES1	0.000	
22	 C42	24.991	43.149	2.928	C.3	1	RES1	0.000	
23	 C43	26.147	43.204	1.953	C.3	1	RES1	0.000	
@<TRIPOS>BOND
1 1 19 1
2 2 20 1
3 3 5 1
4 4 5 1
5 5 7 1
6 5 23 1
7 6 9 1
8 6 10 1
9 6 22 1
10 7 9 1
11 8 11 ar
12 8 12 ar
13 10 11 ar
14 10 15 ar
15 12 14 1
16 14 16 ar
17 16 17 ar
18 17 18 ar
19 18 19 ar
20 19 20 ar
21 14 20 ar
22 12 21 ar
23 13 21 1
24 15 21 ar
25 22 23 1
@<TRIPOS>SUBSTRUCTURE
1	RES1	1	GROUP	1 ****	RES
