# created with PyMOL 2.5.2
@<TRIPOS>MOLECULE
SHP2_5EHR_TargetProtein
23 25 1                 
SMALL
USER_CHARGES
@<TRIPOS>ATOM
1	 CL1	17.479	40.638	8.946	Cl	1	RES1	0.000	
2	 CL2	20.453	41.305	8.018	Cl	1	RES1	0.000	
3	  C1	28.499	42.425	1.368	C.3	1	RES1	0.000	
4	  N1	27.917	43.178	3.634	N.3	1	RES1	0.000	
5	  C2	27.411	42.451	2.443	C.3	1	RES1	0.000	
6	  N2	24.681	41.767	3.366	N.pl3	1	RES1	0.000	
7	  C3	27.012	41.013	2.859	C.3	1	RES1	0.000	
8	  N3	21.036	41.862	4.094	N.2	1	RES1	0.000	
9	  C4	25.830	40.946	3.820	C.3	1	RES1	0.000	
10	  C5	23.400	41.459	3.916	C.2	1	RES1	0.000	
11	  C6	22.238	42.122	3.584	C.2	1	RES1	0.000	
12	  C7	20.984	40.830	5.015	C.2	1	RES1	0.000	
13	  N7	22.121	39.057	6.275	N.pl3	1	RES1	0.000	
14	  C8	19.653	40.518	5.523	C.2	1	RES1	0.000	
15	  N8	23.340	40.423	4.837	N.2	1	RES1	0.000	
16	  C9	18.665	40.034	4.633	C.2	1	RES1	0.000	
17	 C10	17.392	39.733	5.076	C.2	1	RES1	0.000	
18	 C38	17.042	39.917	6.410	C.2	1	RES1	0.000	
19	 C39	17.972	40.425	7.307	C.2	1	RES1	0.000	
20	 C40	19.270	40.713	6.891	C.2	1	RES1	0.000	
21	 C41	22.137	40.129	5.364	C.2	1	RES1	0.000	
22	 C42	24.971	43.148	2.902	C.3	1	RES1	0.000	
23	 C43	26.149	43.180	1.927	C.3	1	RES1	0.000	
@<TRIPOS>BOND
1 1 19 1
2 2 20 1
3 3 5 1
4 4 5 1
5 5 7 1
6 5 23 1
7 6 9 1
8 6 10 1
9 6 22 1
10 7 9 1
11 8 11 ar
12 8 12 ar
13 10 11 ar
14 10 15 ar
15 12 14 1
16 14 16 ar
17 16 17 ar
18 17 18 ar
19 18 19 ar
20 19 20 ar
21 14 20 ar
22 12 21 ar
23 13 21 1
24 15 21 ar
25 22 23 1
@<TRIPOS>SUBSTRUCTURE
1	RES1	1	GROUP	1 ****	RES
