# created with PyMOL 2.5.2
@<TRIPOS>MOLECULE
SHP2_5EHR_TargetProtein
23 25 1                 
SMALL
USER_CHARGES
@<TRIPOS>ATOM
1	 CL1	17.446	40.624	8.942	Cl	1	RES1	0.000	
2	 CL2	20.454	41.325	8.025	Cl	1	RES1	0.000	
3	  C1	28.489	42.431	1.373	C.3	1	RES1	0.000	
4	  N1	27.932	43.171	3.647	N.3	1	RES1	0.000	
5	  C2	27.405	42.464	2.450	C.3	1	RES1	0.000	
6	  N2	24.705	41.780	3.353	N.pl3	1	RES1	0.000	
7	  C3	26.997	41.018	2.840	C.3	1	RES1	0.000	
8	  N3	21.037	41.865	4.101	N.2	1	RES1	0.000	
9	  C4	25.819	40.964	3.837	C.3	1	RES1	0.000	
10	  C5	23.444	41.442	3.948	C.2	1	RES1	0.000	
11	  C6	22.253	42.131	3.585	C.2	1	RES1	0.000	
12	  C7	20.965	40.828	5.013	C.2	1	RES1	0.000	
13	  N7	22.107	39.052	6.263	N.pl3	1	RES1	0.000	
14	  C8	19.636	40.525	5.508	C.2	1	RES1	0.000	
15	  N8	23.329	40.419	4.807	N.2	1	RES1	0.000	
16	  C9	18.680	40.012	4.662	C.2	1	RES1	0.000	
17	 C10	17.382	39.706	5.087	C.2	1	RES1	0.000	
18	 C11	17.033	39.931	6.407	C.2	1	RES1	0.000	
19	 C39	17.980	40.418	7.318	C.2	1	RES1	0.000	
20	 C40	19.289	40.726	6.885	C.2	1	RES1	0.000	
21	 C41	22.132	40.133	5.370	C.2	1	RES1	0.000	
22	 C42	24.983	43.150	2.883	C.3	1	RES1	0.000	
23	 C43	26.164	43.168	1.904	C.3	1	RES1	0.000	
@<TRIPOS>BOND
1 1 19 1
2 2 20 1
3 3 5 1
4 4 5 1
5 5 7 1
6 5 23 1
7 6 9 1
8 6 10 1
9 6 22 1
10 7 9 1
11 8 11 ar
12 8 12 ar
13 10 11 ar
14 10 15 ar
15 12 14 1
16 14 16 ar
17 16 17 ar
18 17 18 ar
19 18 19 ar
20 19 20 ar
21 14 20 ar
22 12 21 ar
23 13 21 1
24 15 21 ar
25 22 23 1
@<TRIPOS>SUBSTRUCTURE
1	RES1	1	GROUP	1 ****	RES
