# created with PyMOL 2.5.2
@<TRIPOS>MOLECULE
SHP2_5EHR_TargetProtein
23 25 1                 
SMALL
USER_CHARGES
@<TRIPOS>ATOM
1	 CL1	17.446	40.652	8.948	Cl	1	RES1	0.000	
2	 CL2	20.447	41.329	8.013	Cl	1	RES1	0.000	
3	  C1	28.463	42.436	1.367	C.3	1	RES1	0.000	
4	  N1	27.932	43.132	3.661	N.3	1	RES1	0.000	
5	  C2	27.386	42.440	2.442	C.3	1	RES1	0.000	
6	  N2	24.689	41.768	3.333	N.pl3	1	RES1	0.000	
7	  C3	26.982	40.992	2.815	C.3	1	RES1	0.000	
8	  N3	21.037	41.853	4.104	N.2	1	RES1	0.000	
9	  C4	25.841	40.960	3.795	C.3	1	RES1	0.000	
10	  C5	23.415	41.459	3.931	C.2	1	RES1	0.000	
11	  C6	22.245	42.131	3.590	C.2	1	RES1	0.000	
12	  C7	20.967	40.844	5.015	C.2	1	RES1	0.000	
13	  N7	22.117	39.055	6.285	N.pl3	1	RES1	0.000	
14	  C8	19.640	40.531	5.501	C.2	1	RES1	0.000	
15	  N8	23.338	40.441	4.830	N.2	1	RES1	0.000	
16	  C9	18.688	40.011	4.651	C.2	1	RES1	0.000	
17	 C10	17.408	39.692	5.092	C.2	1	RES1	0.000	
18	 C38	17.054	39.907	6.416	C.2	1	RES1	0.000	
19	 C39	17.976	40.439	7.304	C.2	1	RES1	0.000	
20	 C40	19.266	40.713	6.862	C.2	1	RES1	0.000	
21	 C41	22.162	40.130	5.374	C.2	1	RES1	0.000	
22	 C42	24.991	43.156	2.945	C.3	1	RES1	0.000	
23	 C43	26.163	43.200	1.932	C.3	1	RES1	0.000	
@<TRIPOS>BOND
1 1 19 1
2 2 20 1
3 3 5 1
4 4 5 1
5 5 7 1
6 5 23 1
7 6 9 1
8 6 10 1
9 6 22 1
10 7 9 1
11 8 11 ar
12 8 12 ar
13 10 11 ar
14 10 15 ar
15 12 14 1
16 14 16 ar
17 16 17 ar
18 17 18 ar
19 18 19 ar
20 19 20 ar
21 14 20 ar
22 12 21 ar
23 13 21 1
24 15 21 ar
25 22 23 1
@<TRIPOS>SUBSTRUCTURE
1	RES1	1	GROUP	1 ****	RES
