# created with PyMOL 2.5.2
@<TRIPOS>MOLECULE
SHP2_7RCT_TargetProtein
29 32 1                 
SMALL
USER_CHARGES
@<TRIPOS>ATOM
1	 CL1	17.084	20.251	8.976	Cl	1	RES1	0.000	
2	 CL2	20.054	20.788	7.832	Cl	1	RES1	0.000	
3	  C1	21.394	18.384	6.417	C.3	1	RES1	0.000	
4	  N1	22.721	19.640	4.819	N.2	1	RES1	0.000	
5	  O1	28.667	22.688	3.762	O.3	1	RES1	0.000	
6	  C2	21.477	19.409	5.333	C.2	1	RES1	0.000	
7	  N2	24.180	20.820	3.266	N.pl3	1	RES1	0.000	
8	  O2	20.711	22.072	1.280	O.3	1	RES1	0.000	
9	  C3	22.865	20.562	3.823	C.2	1	RES1	0.000	
10	  N3	28.988	20.418	1.558	N.3	1	RES1	0.000	
11	  C4	24.602	22.199	3.362	C.3	1	RES1	0.000	
12	  N4	20.474	21.036	3.874	N.2	1	RES1	0.000	
13	  C5	25.822	22.398	2.472	C.3	1	RES1	0.000	
14	  C6	26.967	21.390	2.692	C.3	1	RES1	0.000	
15	  C7	26.372	19.966	2.672	C.3	1	RES1	0.000	
16	  C8	25.177	19.795	3.609	C.3	1	RES1	0.000	
17	  C9	27.684	21.693	4.027	C.3	1	RES1	0.000	
18	 C10	28.832	22.807	2.354	C.3	1	RES1	0.000	
19	 C11	30.303	22.985	2.000	C.3	1	RES1	0.000	
20	 C12	28.116	21.606	1.713	C.3	1	RES1	0.000	
21	 C13	21.711	21.241	3.319	C.2	1	RES1	0.000	
22	 C14	21.785	22.196	2.202	C.3	1	RES1	0.000	
23	 C15	20.345	20.124	4.841	C.2	1	RES1	0.000	
24	 C16	19.016	19.947	5.409	C.2	1	RES1	0.000	
25	 C17	17.980	19.472	4.625	C.2	1	RES1	0.000	
26	 C18	16.705	19.262	5.130	C.2	1	RES1	0.000	
27	 C19	16.459	19.502	6.480	C.2	1	RES1	0.000	
28	 C43	17.464	19.978	7.301	C.2	1	RES1	0.000	
29	 C44	18.770	20.186	6.768	C.2	1	RES1	0.000	
@<TRIPOS>BOND
1 1 28 1
2 2 29 1
3 3 6 1
4 4 6 ar
5 4 9 ar
6 5 17 1
7 5 18 1
8 7 9 1
9 7 11 1
10 7 16 1
11 11 13 1
12 13 14 1
13 14 15 1
14 14 17 1
15 15 16 1
16 18 19 1
17 18 20 1
18 10 20 1
19 14 20 1
20 9 21 ar
21 12 21 ar
22 21 22 1
23 8 22 1
24 6 23 ar
25 12 23 ar
26 23 24 1
27 24 25 ar
28 24 29 ar
29 25 26 ar
30 26 27 ar
31 27 28 ar
32 28 29 ar
@<TRIPOS>SUBSTRUCTURE
1	RES1	1	GROUP	1 ****	RES
