# created with PyMOL 2.5.2
@<TRIPOS>MOLECULE
SHP2_7RCT_TargetProtein
29 32 1                 
SMALL
USER_CHARGES
@<TRIPOS>ATOM
1	 CL1	17.010	20.121	8.929	Cl	1	RES1	0.000	
2	 CL2	19.987	20.765	7.895	Cl	1	RES1	0.000	
3	  C1	21.644	18.510	6.507	C.3	1	RES1	0.000	
4	  N1	22.836	19.817	4.840	N.2	1	RES1	0.000	
5	  O1	28.858	21.973	4.026	O.3	1	RES1	0.000	
6	  C2	21.642	19.522	5.380	C.2	1	RES1	0.000	
7	  N2	24.161	21.048	3.267	N.pl3	1	RES1	0.000	
8	  O2	20.567	21.966	1.280	O.3	1	RES1	0.000	
9	  C3	22.893	20.716	3.813	C.2	1	RES1	0.000	
10	  N3	28.069	21.495	0.463	N.3	1	RES1	0.000	
11	  C4	24.457	22.491	3.205	C.3	1	RES1	0.000	
12	  N4	20.488	20.992	3.891	N.2	1	RES1	0.000	
13	  C5	25.655	22.733	2.273	C.3	1	RES1	0.000	
14	  C6	26.899	21.908	2.698	C.3	1	RES1	0.000	
15	  C7	26.482	20.415	2.817	C.3	1	RES1	0.000	
16	  C8	25.282	20.183	3.688	C.3	1	RES1	0.000	
17	  C9	27.503	22.393	3.996	C.3	1	RES1	0.000	
18	 C10	29.334	21.908	2.656	C.3	1	RES1	0.000	
19	 C11	30.066	20.587	2.445	C.3	1	RES1	0.000	
20	 C12	28.091	22.161	1.753	C.3	1	RES1	0.000	
21	 C13	21.701	21.280	3.338	C.2	1	RES1	0.000	
22	 C14	21.682	22.228	2.158	C.3	1	RES1	0.000	
23	 C15	20.457	20.098	4.914	C.2	1	RES1	0.000	
24	 C16	19.124	19.842	5.478	C.2	1	RES1	0.000	
25	 C17	18.147	19.322	4.615	C.2	1	RES1	0.000	
26	 C18	16.859	19.059	5.100	C.2	1	RES1	0.000	
27	 C19	16.530	19.324	6.410	C.2	1	RES1	0.000	
28	 C43	17.505	19.848	7.283	C.2	1	RES1	0.000	
29	 C44	18.798	20.111	6.798	C.2	1	RES1	0.000	
@<TRIPOS>BOND
1 1 28 1
2 2 29 1
3 3 6 1
4 4 6 ar
5 4 9 ar
6 5 17 1
7 5 18 1
8 7 9 1
9 7 11 1
10 7 16 1
11 11 13 1
12 13 14 1
13 14 15 1
14 14 17 1
15 15 16 1
16 18 19 1
17 18 20 1
18 10 20 1
19 14 20 1
20 9 21 ar
21 12 21 ar
22 21 22 1
23 8 22 1
24 6 23 ar
25 12 23 ar
26 23 24 1
27 24 25 ar
28 24 29 ar
29 25 26 ar
30 26 27 ar
31 27 28 ar
32 28 29 ar
@<TRIPOS>SUBSTRUCTURE
1	RES1	1	GROUP	1 ****	RES
