# created with PyMOL 2.5.2
@<TRIPOS>MOLECULE
SHP2_7RCT_TargetProtein
29 32 1                 
SMALL
USER_CHARGES
@<TRIPOS>ATOM
1	 CL1	17.333	20.266	9.128	Cl	1	RES1	0.000	
2	 CL2	20.236	20.817	7.870	Cl	1	RES1	0.000	
3	  C1	21.715	18.485	6.372	C.3	1	RES1	0.000	
4	  N1	22.837	19.744	4.622	N.2	1	RES1	0.000	
5	  O1	29.159	21.386	1.764	O.3	1	RES1	0.000	
6	  C2	21.675	19.483	5.270	C.2	1	RES1	0.000	
7	  N2	24.086	20.937	2.976	N.pl3	1	RES1	0.000	
8	  O2	20.390	22.009	1.250	O.3	1	RES1	0.000	
9	  C3	22.848	20.656	3.621	C.2	1	RES1	0.000	
10	  N3	27.786	23.291	3.886	N.3	1	RES1	0.000	
11	  C4	25.115	19.936	3.136	C.3	1	RES1	0.000	
12	  N4	20.470	20.994	3.860	N.2	1	RES1	0.000	
13	  C5	26.269	20.187	2.176	C.3	1	RES1	0.000	
14	  C6	26.828	21.615	2.255	C.3	1	RES1	0.000	
15	  C7	25.632	22.566	2.044	C.3	1	RES1	0.000	
16	  C8	24.496	22.355	3.044	C.3	1	RES1	0.000	
17	  C9	27.901	21.837	1.191	C.3	1	RES1	0.000	
18	 C10	28.987	21.184	3.188	C.3	1	RES1	0.000	
19	 C11	30.207	21.660	3.926	C.3	1	RES1	0.000	
20	 C12	27.663	21.847	3.540	C.3	1	RES1	0.000	
21	 C13	21.635	21.257	3.235	C.2	1	RES1	0.000	
22	 C14	21.549	22.212	2.057	C.3	1	RES1	0.000	
23	 C15	20.473	20.122	4.872	C.2	1	RES1	0.000	
24	 C16	19.172	19.877	5.531	C.2	1	RES1	0.000	
25	 C17	18.118	19.395	4.771	C.2	1	RES1	0.000	
26	 C18	16.861	19.148	5.329	C.2	1	RES1	0.000	
27	 C19	16.643	19.428	6.651	C.2	1	RES1	0.000	
28	 C47	17.699	19.962	7.463	C.2	1	RES1	0.000	
29	 C48	18.946	20.164	6.888	C.2	1	RES1	0.000	
@<TRIPOS>BOND
1 1 28 1
2 2 29 1
3 3 6 1
4 4 6 ar
5 4 9 ar
6 5 17 1
7 5 18 1
8 7 9 1
9 7 11 1
10 7 16 1
11 11 13 1
12 13 14 1
13 14 15 1
14 14 17 1
15 15 16 1
16 18 19 1
17 18 20 1
18 10 20 1
19 14 20 1
20 9 21 ar
21 12 21 ar
22 21 22 1
23 8 22 1
24 6 23 ar
25 12 23 ar
26 23 24 1
27 24 25 ar
28 24 29 ar
29 25 26 ar
30 26 27 ar
31 27 28 ar
32 28 29 ar
@<TRIPOS>SUBSTRUCTURE
1	RES1	1	GROUP	1 ****	RES
