# created with PyMOL 2.5.2
@<TRIPOS>MOLECULE
SHP2_7RCT_TargetProtein
29 32 1                 
SMALL
USER_CHARGES
@<TRIPOS>ATOM
1	 CL1	17.341	20.225	9.138	Cl	1	RES1	0.000	
2	 CL2	20.251	20.769	7.898	Cl	1	RES1	0.000	
3	  C1	21.696	18.459	6.373	C.3	1	RES1	0.000	
4	  N1	22.815	19.716	4.625	N.2	1	RES1	0.000	
5	  O1	29.166	21.378	1.768	O.3	1	RES1	0.000	
6	  C2	21.648	19.477	5.256	C.2	1	RES1	0.000	
7	  N2	24.068	20.914	2.974	N.pl3	1	RES1	0.000	
8	  O2	20.416	22.042	1.269	O.3	1	RES1	0.000	
9	  C3	22.863	20.629	3.631	C.2	1	RES1	0.000	
10	  N3	27.755	23.295	3.818	N.3	1	RES1	0.000	
11	  C4	24.514	22.323	3.005	C.3	1	RES1	0.000	
12	  N4	20.464	21.022	3.868	N.2	1	RES1	0.000	
13	  C5	25.621	22.547	2.014	C.3	1	RES1	0.000	
14	  C6	26.838	21.611	2.250	C.3	1	RES1	0.000	
15	  C7	26.304	20.159	2.200	C.3	1	RES1	0.000	
16	  C8	25.152	19.931	3.192	C.3	1	RES1	0.000	
17	  C9	27.935	21.793	1.208	C.3	1	RES1	0.000	
18	 C10	28.977	21.212	3.183	C.3	1	RES1	0.000	
19	 C11	30.215	21.743	3.922	C.3	1	RES1	0.000	
20	 C12	27.629	21.873	3.534	C.3	1	RES1	0.000	
21	 C13	21.635	21.270	3.227	C.2	1	RES1	0.000	
22	 C14	21.563	22.230	2.069	C.3	1	RES1	0.000	
23	 C15	20.465	20.127	4.893	C.2	1	RES1	0.000	
24	 C16	19.161	19.915	5.523	C.2	1	RES1	0.000	
25	 C17	18.101	19.415	4.744	C.2	1	RES1	0.000	
26	 C18	16.851	19.195	5.308	C.2	1	RES1	0.000	
27	 C19	16.649	19.444	6.666	C.2	1	RES1	0.000	
28	 C47	17.686	19.940	7.457	C.2	1	RES1	0.000	
29	 C48	18.947	20.158	6.902	C.2	1	RES1	0.000	
@<TRIPOS>BOND
1 1 28 1
2 2 29 1
3 3 6 1
4 4 6 ar
5 4 9 ar
6 5 17 1
7 5 18 1
8 7 9 1
9 7 11 1
10 7 16 1
11 11 13 1
12 13 14 1
13 14 15 1
14 14 17 1
15 15 16 1
16 18 19 1
17 18 20 1
18 10 20 1
19 14 20 1
20 9 21 ar
21 12 21 ar
22 21 22 1
23 8 22 1
24 6 23 ar
25 12 23 ar
26 23 24 1
27 24 25 ar
28 24 29 ar
29 25 26 ar
30 26 27 ar
31 27 28 ar
32 28 29 ar
@<TRIPOS>SUBSTRUCTURE
1	RES1	1	GROUP	1 ****	RES
