# created with PyMOL 2.5.2
@<TRIPOS>MOLECULE
SHP2_7RCT_TargetProtein
29 32 1                 
SMALL
USER_CHARGES
@<TRIPOS>ATOM
1	 CL1	16.951	20.182	8.893	Cl	1	RES1	0.000	
2	 CL2	19.926	20.781	7.885	Cl	1	RES1	0.000	
3	  C1	21.467	18.567	6.593	C.3	1	RES1	0.000	
4	  N1	22.743	19.791	4.905	N.2	1	RES1	0.000	
5	  O1	28.690	22.648	3.729	O.3	1	RES1	0.000	
6	  C2	21.528	19.542	5.439	C.2	1	RES1	0.000	
7	  N2	24.152	20.850	3.302	N.pl3	1	RES1	0.000	
8	  O2	20.675	22.091	1.337	O.3	1	RES1	0.000	
9	  C3	22.875	20.623	3.868	C.2	1	RES1	0.000	
10	  N3	28.989	20.414	1.466	N.3	1	RES1	0.000	
11	  C4	25.154	19.780	3.558	C.3	1	RES1	0.000	
12	  N4	20.477	21.025	3.908	N.2	1	RES1	0.000	
13	  C5	26.332	19.947	2.604	C.3	1	RES1	0.000	
14	  C6	26.972	21.352	2.671	C.3	1	RES1	0.000	
15	  C7	25.849	22.405	2.476	C.3	1	RES1	0.000	
16	  C8	24.652	22.195	3.399	C.3	1	RES1	0.000	
17	  C9	27.732	21.593	3.972	C.3	1	RES1	0.000	
18	 C10	28.863	22.770	2.296	C.3	1	RES1	0.000	
19	 C11	30.344	22.922	1.979	C.3	1	RES1	0.000	
20	 C12	28.088	21.594	1.633	C.3	1	RES1	0.000	
21	 C13	21.716	21.265	3.357	C.2	1	RES1	0.000	
22	 C14	21.761	22.293	2.262	C.3	1	RES1	0.000	
23	 C15	20.379	20.163	4.904	C.2	1	RES1	0.000	
24	 C16	19.026	19.935	5.437	C.2	1	RES1	0.000	
25	 C17	18.069	19.411	4.570	C.2	1	RES1	0.000	
26	 C18	16.746	19.173	5.031	C.2	1	RES1	0.000	
27	 C19	16.460	19.427	6.402	C.2	1	RES1	0.000	
28	 C51	17.415	19.906	7.255	C.2	1	RES1	0.000	
29	 C52	18.697	20.170	6.788	C.2	1	RES1	0.000	
@<TRIPOS>BOND
1 1 28 1
2 2 29 1
3 3 6 1
4 4 6 ar
5 4 9 ar
6 5 17 1
7 5 18 1
8 7 9 1
9 7 11 1
10 7 16 1
11 11 13 1
12 13 14 1
13 14 15 1
14 14 17 1
15 15 16 1
16 18 19 1
17 18 20 1
18 10 20 1
19 14 20 1
20 9 21 ar
21 12 21 ar
22 21 22 1
23 8 22 1
24 6 23 ar
25 12 23 ar
26 23 24 1
27 24 25 ar
28 24 29 ar
29 25 26 ar
30 26 27 ar
31 27 28 ar
32 28 29 ar
@<TRIPOS>SUBSTRUCTURE
1	RES1	1	GROUP	1 ****	RES
