# created with PyMOL 2.5.2
@<TRIPOS>MOLECULE
SHP2_7RCT_TargetProtein
29 32 1                 
SMALL
USER_CHARGES
@<TRIPOS>ATOM
1	 CL1	17.328	20.226	9.111	Cl	1	RES1	0.000	
2	 CL2	20.258	20.784	7.884	Cl	1	RES1	0.000	
3	  C1	21.726	18.515	6.409	C.3	1	RES1	0.000	
4	  N1	22.835	19.740	4.625	N.2	1	RES1	0.000	
5	  O1	29.153	21.373	1.755	O.3	1	RES1	0.000	
6	  C2	21.678	19.480	5.280	C.2	1	RES1	0.000	
7	  N2	24.075	20.931	2.977	N.pl3	1	RES1	0.000	
8	  O2	20.380	21.987	1.248	O.3	1	RES1	0.000	
9	  C3	22.831	20.653	3.620	C.2	1	RES1	0.000	
10	  N3	27.801	23.272	3.869	N.3	1	RES1	0.000	
11	  C4	25.119	19.919	3.138	C.3	1	RES1	0.000	
12	  N4	20.440	21.012	3.866	N.2	1	RES1	0.000	
13	  C5	26.274	20.199	2.195	C.3	1	RES1	0.000	
14	  C6	26.838	21.627	2.265	C.3	1	RES1	0.000	
15	  C7	25.642	22.593	2.049	C.3	1	RES1	0.000	
16	  C8	24.514	22.353	3.044	C.3	1	RES1	0.000	
17	  C9	27.928	21.832	1.201	C.3	1	RES1	0.000	
18	 C10	28.980	21.191	3.171	C.3	1	RES1	0.000	
19	 C11	30.200	21.659	3.917	C.3	1	RES1	0.000	
20	 C12	27.642	21.845	3.536	C.3	1	RES1	0.000	
21	 C13	21.635	21.278	3.228	C.2	1	RES1	0.000	
22	 C14	21.569	22.203	2.024	C.3	1	RES1	0.000	
23	 C15	20.464	20.147	4.885	C.2	1	RES1	0.000	
24	 C16	19.180	19.907	5.514	C.2	1	RES1	0.000	
25	 C17	18.117	19.402	4.761	C.2	1	RES1	0.000	
26	 C18	16.866	19.163	5.331	C.2	1	RES1	0.000	
27	 C19	16.629	19.418	6.667	C.2	1	RES1	0.000	
28	 C51	17.685	19.936	7.451	C.2	1	RES1	0.000	
29	 C52	18.942	20.169	6.896	C.2	1	RES1	0.000	
@<TRIPOS>BOND
1 1 28 1
2 2 29 1
3 3 6 1
4 4 6 ar
5 4 9 ar
6 5 17 1
7 5 18 1
8 7 9 1
9 7 11 1
10 7 16 1
11 11 13 1
12 13 14 1
13 14 15 1
14 14 17 1
15 15 16 1
16 18 19 1
17 18 20 1
18 10 20 1
19 14 20 1
20 9 21 ar
21 12 21 ar
22 21 22 1
23 8 22 1
24 6 23 ar
25 12 23 ar
26 23 24 1
27 24 25 ar
28 24 29 ar
29 25 26 ar
30 26 27 ar
31 27 28 ar
32 28 29 ar
@<TRIPOS>SUBSTRUCTURE
1	RES1	1	GROUP	1 ****	RES
