# created with PyMOL 2.5.2
@<TRIPOS>MOLECULE
JAK2_6WTQ_TargetProtein
28 31 1                 
SMALL
USER_CHARGES
@<TRIPOS>ATOM
1	  C1	24.018	-12.702	7.017	C.3	1	RES1	0.000	
2	  N1	21.178	-13.445	6.976	N.2	1	RES1	0.000	
3	  O1	21.754	-22.255	6.502	O.2	1	RES1	0.000	
4	  C2	23.122	-12.527	8.239	C.3	1	RES1	0.000	
5	  N2	20.195	-16.205	3.485	N.2	1	RES1	0.000	
6	  C3	21.648	-12.391	7.870	C.3	1	RES1	0.000	
7	  N3	19.992	-17.981	2.010	N.pl3	1	RES1	0.000	
8	  C4	20.948	-13.313	5.617	C.2	1	RES1	0.000	
9	  N4	20.948	-23.653	4.917	N.pl3	1	RES1	0.000	
10	  C5	20.495	-14.533	5.167	C.2	1	RES1	0.000	
11	  C6	20.156	-14.890	3.807	C.2	1	RES1	0.000	
12	  C7	19.906	-16.606	2.220	C.2	1	RES1	0.000	
13	  C8	20.279	-19.087	2.827	C.2	1	RES1	0.000	
14	  N8	19.540	-15.779	1.236	N.2	1	RES1	0.000	
15	  C9	20.621	-18.882	4.158	C.2	1	RES1	0.000	
16	  N9	19.114	-13.465	0.758	N.2	1	RES1	0.000	
17	 C10	20.917	-19.935	5.017	C.2	1	RES1	0.000	
18	 N10	20.936	-14.686	7.426	N.2	1	RES1	0.000	
19	 C11	20.939	-21.246	4.563	C.2	1	RES1	0.000	
20	 C12	21.257	-22.412	5.425	C.2	1	RES1	0.000	
21	 C13	21.183	-24.859	5.681	C.3	1	RES1	0.000	
22	 C30	20.623	-21.468	3.211	C.2	1	RES1	0.000	
23	 C31	20.294	-20.426	2.365	C.2	1	RES1	0.000	
24	 C32	19.489	-14.474	1.586	C.2	1	RES1	0.000	
25	 C33	19.760	-13.949	2.833	C.2	1	RES1	0.000	
26	 C34	19.534	-12.539	2.735	C.2	1	RES1	0.000	
27	 C35	19.155	-12.289	1.427	C.2	1	RES1	0.000	
28	 C36	20.546	-15.343	6.319	C.2	1	RES1	0.000	
@<TRIPOS>BOND
1 1 4 1
2 2 6 1
3 2 8 ar
4 2 18 ar
5 3 20 2
6 4 6 1
7 5 11 ar
8 5 12 ar
9 7 12 1
10 7 13 1
11 8 10 ar
12 10 11 1
13 12 14 ar
14 13 15 ar
15 15 17 ar
16 17 19 ar
17 18 28 ar
18 19 20 1
19 19 22 ar
20 9 20 1
21 9 21 1
22 22 23 ar
23 13 23 ar
24 14 24 ar
25 16 24 ar
26 24 25 ar
27 11 25 ar
28 25 26 ar
29 26 27 ar
30 16 27 ar
31 10 28 ar
@<TRIPOS>SUBSTRUCTURE
1	RES1	1	GROUP	1 ****	RES
