# created with PyMOL 2.5.2
@<TRIPOS>MOLECULE
JAK2_6WTQ_TargetProtein
28 31 1                 
SMALL
USER_CHARGES
@<TRIPOS>ATOM
1	  C1	24.068	-12.595	7.095	C.3	1	RES1	0.000	
2	  N1	21.182	-13.145	6.906	N.2	1	RES1	0.000	
3	  O1	21.796	-22.537	6.348	O.2	1	RES1	0.000	
4	  C2	23.141	-12.294	8.247	C.3	1	RES1	0.000	
5	  N2	20.206	-16.114	3.653	N.2	1	RES1	0.000	
6	  C3	21.683	-12.071	7.789	C.3	1	RES1	0.000	
7	  N3	20.007	-17.985	2.168	N.pl3	1	RES1	0.000	
8	  C4	20.990	-13.101	5.579	C.2	1	RES1	0.000	
9	  N4	20.887	-23.909	4.727	N.pl3	1	RES1	0.000	
10	  C5	20.493	-14.361	5.225	C.2	1	RES1	0.000	
11	  C6	20.146	-14.797	3.872	C.2	1	RES1	0.000	
12	  C7	19.934	-16.638	2.435	C.2	1	RES1	0.000	
13	  C8	20.305	-19.124	2.950	C.2	1	RES1	0.000	
14	  N8	19.569	-15.831	1.361	N.2	1	RES1	0.000	
15	  C9	20.675	-19.029	4.328	C.2	1	RES1	0.000	
16	  N9	19.152	-13.605	0.699	N.2	1	RES1	0.000	
17	 C10	20.973	-20.208	5.050	C.2	1	RES1	0.000	
18	 N10	20.822	-14.334	7.485	N.2	1	RES1	0.000	
19	 C11	20.921	-21.465	4.444	C.2	1	RES1	0.000	
20	 C12	21.232	-22.677	5.262	C.2	1	RES1	0.000	
21	 C13	21.138	-25.130	5.430	C.3	1	RES1	0.000	
22	 C32	20.571	-21.551	3.100	C.2	1	RES1	0.000	
23	 C33	20.291	-20.393	2.367	C.2	1	RES1	0.000	
24	 C34	19.509	-14.550	1.627	C.2	1	RES1	0.000	
25	 C35	19.776	-13.938	2.843	C.2	1	RES1	0.000	
26	 C36	19.536	-12.526	2.623	C.2	1	RES1	0.000	
27	 C37	19.143	-12.395	1.309	C.2	1	RES1	0.000	
28	 C38	20.406	-15.038	6.476	C.2	1	RES1	0.000	
@<TRIPOS>BOND
1 1 4 1
2 2 6 1
3 2 8 ar
4 2 18 ar
5 3 20 2
6 4 6 1
7 5 11 ar
8 5 12 ar
9 7 12 1
10 7 13 1
11 8 10 ar
12 10 11 1
13 12 14 ar
14 13 15 ar
15 15 17 ar
16 17 19 ar
17 18 28 ar
18 19 20 1
19 19 22 ar
20 9 20 1
21 9 21 1
22 22 23 ar
23 13 23 ar
24 14 24 ar
25 16 24 ar
26 24 25 ar
27 11 25 ar
28 25 26 ar
29 26 27 ar
30 16 27 ar
31 10 28 ar
@<TRIPOS>SUBSTRUCTURE
1	RES1	1	GROUP	1 ****	RES
