# created with PyMOL 2.5.2
@<TRIPOS>MOLECULE
BRD4_6YQN_TargetProtein
24 27 1                 
SMALL
USER_CHARGES
@<TRIPOS>ATOM
1	 CL1	25.740	17.894	-6.995	Cl	1	RES1	0.000	
2	  C1	26.042	15.074	1.292	C.3	1	RES1	0.000	
3	  N1	30.791	16.823	0.028	N.2	1	RES1	0.000	
4	  S1	28.499	16.297	1.371	S.2	1	RES1	0.000	
5	  C2	27.227	15.481	0.532	C.2	1	RES1	0.000	
6	  N2	32.699	17.780	0.527	N.2	1	RES1	0.000	
7	  C3	27.529	15.302	-0.811	C.2	1	RES1	0.000	
8	  N3	32.925	16.983	-0.525	N.2	1	RES1	0.000	
9	  C4	26.598	14.568	-1.743	C.3	1	RES1	0.000	
10	  C5	28.805	15.896	-1.193	C.2	1	RES1	0.000	
11	  C6	29.473	16.361	-0.067	C.2	1	RES1	0.000	
12	  C7	31.429	17.691	0.878	C.2	1	RES1	0.000	
13	  C8	30.803	18.505	1.950	C.3	1	RES1	0.000	
14	  N8	30.578	15.781	-2.874	N.2	1	RES1	0.000	
15	  C9	31.792	16.395	-0.842	C.2	1	RES1	0.000	
16	 C10	31.529	15.313	-1.864	C.3	1	RES1	0.000	
17	 C11	32.837	14.950	-2.605	C.3	1	RES1	0.000	
18	 C31	29.310	16.003	-2.552	C.2	1	RES1	0.000	
19	 C32	28.417	16.493	-3.644	C.2	1	RES1	0.000	
20	 C33	27.351	17.334	-3.373	C.2	1	RES1	0.000	
21	 C34	26.518	17.770	-4.399	C.2	1	RES1	0.000	
22	 C35	26.775	17.363	-5.725	C.2	1	RES1	0.000	
23	 C36	27.848	16.530	-5.987	C.2	1	RES1	0.000	
24	 C37	28.686	16.096	-4.988	C.2	1	RES1	0.000	
@<TRIPOS>BOND
1 1 22 1
2 2 5 1
3 3 11 1
4 3 12 ar
5 3 15 ar
6 4 5 ar
7 4 11 ar
8 5 7 ar
9 6 8 ar
10 6 12 ar
11 7 9 1
12 7 10 ar
13 8 15 ar
14 10 11 ar
15 12 13 1
16 14 16 1
17 15 16 1
18 16 17 1
19 10 18 1
20 14 18 2
21 18 19 1
22 19 20 ar
23 19 24 ar
24 20 21 ar
25 21 22 ar
26 22 23 ar
27 23 24 ar
@<TRIPOS>SUBSTRUCTURE
1	RES1	1	GROUP	1 ****	RES
