# created with PyMOL 2.5.2
@<TRIPOS>MOLECULE
JAK2_6WTQ_TargetProtein
28 31 1                 
SMALL
USER_CHARGES
@<TRIPOS>ATOM
1	  C1	23.977	-12.514	7.037	C.3	1	RES1	0.000	
2	  N1	21.170	-13.147	6.952	N.2	1	RES1	0.000	
3	  O1	21.791	-22.556	6.323	O.2	1	RES1	0.000	
4	  C2	23.075	-12.204	8.211	C.3	1	RES1	0.000	
5	  N2	20.233	-16.137	3.666	N.2	1	RES1	0.000	
6	  C3	21.640	-12.038	7.789	C.3	1	RES1	0.000	
7	  N3	19.999	-17.998	2.170	N.pl3	1	RES1	0.000	
8	  C4	20.938	-13.099	5.585	C.2	1	RES1	0.000	
9	  N4	20.867	-23.906	4.724	N.pl3	1	RES1	0.000	
10	  C5	20.492	-14.348	5.240	C.2	1	RES1	0.000	
11	  C6	20.182	-14.792	3.883	C.2	1	RES1	0.000	
12	  C7	19.927	-16.624	2.430	C.2	1	RES1	0.000	
13	  C8	20.312	-19.131	2.961	C.2	1	RES1	0.000	
14	  N8	19.570	-15.880	1.381	N.2	1	RES1	0.000	
15	  C9	20.654	-19.071	4.324	C.2	1	RES1	0.000	
16	  N9	19.151	-13.596	0.726	N.2	1	RES1	0.000	
17	 C10	20.952	-20.224	5.073	C.2	1	RES1	0.000	
18	 N10	20.924	-14.352	7.481	N.2	1	RES1	0.000	
19	 C11	20.916	-21.468	4.424	C.2	1	RES1	0.000	
20	 C12	21.228	-22.687	5.258	C.2	1	RES1	0.000	
21	 C13	21.112	-25.164	5.418	C.3	1	RES1	0.000	
22	 C29	20.549	-21.560	3.071	C.2	1	RES1	0.000	
23	 C30	20.284	-20.388	2.377	C.2	1	RES1	0.000	
24	 C31	19.529	-14.548	1.650	C.2	1	RES1	0.000	
25	 C32	19.783	-13.925	2.848	C.2	1	RES1	0.000	
26	 C33	19.574	-12.545	2.632	C.2	1	RES1	0.000	
27	 C34	19.182	-12.362	1.329	C.2	1	RES1	0.000	
28	 C35	20.538	-15.075	6.432	C.2	1	RES1	0.000	
@<TRIPOS>BOND
1 1 4 1
2 2 6 1
3 2 8 ar
4 2 18 ar
5 3 20 2
6 4 6 1
7 5 11 ar
8 5 12 ar
9 7 12 1
10 7 13 1
11 8 10 ar
12 10 11 1
13 12 14 ar
14 13 15 ar
15 15 17 ar
16 17 19 ar
17 18 28 ar
18 19 20 1
19 19 22 ar
20 9 20 1
21 9 21 1
22 22 23 ar
23 13 23 ar
24 14 24 ar
25 16 24 ar
26 24 25 ar
27 11 25 ar
28 25 26 ar
29 26 27 ar
30 16 27 ar
31 10 28 ar
@<TRIPOS>SUBSTRUCTURE
1	RES1	1	GROUP	1 ****	RES
