# created with PyMOL 2.5.2
@<TRIPOS>MOLECULE
JAK2_6WTQ_TargetProtein
28 31 1                 
SMALL
USER_CHARGES
@<TRIPOS>ATOM
1	  C1	24.052	-12.612	7.069	C.3	1	RES1	0.000	
2	  N1	21.185	-13.135	6.928	N.2	1	RES1	0.000	
3	  O1	21.794	-22.550	6.347	O.2	1	RES1	0.000	
4	  C2	23.117	-12.292	8.233	C.3	1	RES1	0.000	
5	  N2	20.220	-16.112	3.641	N.2	1	RES1	0.000	
6	  C3	21.672	-12.062	7.786	C.3	1	RES1	0.000	
7	  N3	20.025	-17.999	2.166	N.pl3	1	RES1	0.000	
8	  C4	20.994	-13.088	5.581	C.2	1	RES1	0.000	
9	  N4	20.874	-23.889	4.711	N.pl3	1	RES1	0.000	
10	  C5	20.488	-14.343	5.203	C.2	1	RES1	0.000	
11	  C6	20.140	-14.777	3.862	C.2	1	RES1	0.000	
12	  C7	19.969	-16.628	2.425	C.2	1	RES1	0.000	
13	  C8	20.342	-19.123	2.963	C.2	1	RES1	0.000	
14	  N8	19.577	-15.877	1.372	N.2	1	RES1	0.000	
15	  C9	20.233	-20.390	2.385	C.2	1	RES1	0.000	
16	  N9	19.148	-13.592	0.724	N.2	1	RES1	0.000	
17	 C10	20.551	-21.568	3.086	C.2	1	RES1	0.000	
18	 N10	20.821	-14.321	7.488	N.2	1	RES1	0.000	
19	 C11	20.923	-21.457	4.443	C.2	1	RES1	0.000	
20	 C12	21.223	-22.679	5.284	C.2	1	RES1	0.000	
21	 C13	21.125	-25.159	5.430	C.3	1	RES1	0.000	
22	 C31	21.005	-20.197	5.057	C.2	1	RES1	0.000	
23	 C32	20.715	-19.058	4.318	C.2	1	RES1	0.000	
24	 C33	19.507	-14.550	1.623	C.2	1	RES1	0.000	
25	 C34	19.779	-13.925	2.860	C.2	1	RES1	0.000	
26	 C35	19.529	-12.531	2.637	C.2	1	RES1	0.000	
27	 C36	19.134	-12.374	1.335	C.2	1	RES1	0.000	
28	 C37	20.402	-15.048	6.440	C.2	1	RES1	0.000	
@<TRIPOS>BOND
1 1 4 1
2 2 6 1
3 2 8 ar
4 2 18 ar
5 3 20 2
6 4 6 1
7 5 11 ar
8 5 12 ar
9 7 12 1
10 7 13 1
11 8 10 ar
12 10 11 1
13 12 14 ar
14 13 15 ar
15 15 17 ar
16 17 19 ar
17 18 28 ar
18 19 20 1
19 19 22 ar
20 9 20 1
21 9 21 1
22 22 23 ar
23 13 23 ar
24 14 24 ar
25 16 24 ar
26 24 25 ar
27 11 25 ar
28 25 26 ar
29 26 27 ar
30 16 27 ar
31 10 28 ar
@<TRIPOS>SUBSTRUCTURE
1	RES1	1	GROUP	1 ****	RES
