# created with PyMOL 2.5.2
@<TRIPOS>MOLECULE
JAK2_6WTQ_TargetProtein
28 31 1                 
SMALL
USER_CHARGES
@<TRIPOS>ATOM
1	  C1	24.050	-12.564	7.128	C.3	1	RES1	0.000	
2	  N1	21.168	-13.058	6.890	N.2	1	RES1	0.000	
3	  O1	21.812	-22.688	6.303	O.2	1	RES1	0.000	
4	  C2	23.121	-12.184	8.239	C.3	1	RES1	0.000	
5	  N2	20.247	-16.134	3.663	N.2	1	RES1	0.000	
6	  C3	21.682	-11.958	7.727	C.3	1	RES1	0.000	
7	  N3	19.995	-18.002	2.212	N.pl3	1	RES1	0.000	
8	  C4	21.003	-13.069	5.554	C.2	1	RES1	0.000	
9	  N4	20.867	-23.932	4.620	N.pl3	1	RES1	0.000	
10	  C5	20.519	-14.332	5.221	C.2	1	RES1	0.000	
11	  C6	20.169	-14.781	3.903	C.2	1	RES1	0.000	
12	  C7	19.936	-16.642	2.448	C.2	1	RES1	0.000	
13	  C8	20.301	-19.134	3.004	C.2	1	RES1	0.000	
14	  N8	19.554	-15.889	1.409	N.2	1	RES1	0.000	
15	  C9	20.276	-20.418	2.411	C.2	1	RES1	0.000	
16	  N9	19.130	-13.636	0.742	N.2	1	RES1	0.000	
17	 C10	20.563	-21.563	3.131	C.2	1	RES1	0.000	
18	 N10	20.784	-14.239	7.473	N.2	1	RES1	0.000	
19	 C11	20.924	-21.475	4.486	C.2	1	RES1	0.000	
20	 C12	21.235	-22.738	5.232	C.2	1	RES1	0.000	
21	 C13	21.128	-25.205	5.249	C.3	1	RES1	0.000	
22	 C30	20.972	-20.217	5.109	C.2	1	RES1	0.000	
23	 C31	20.670	-19.068	4.369	C.2	1	RES1	0.000	
24	 C32	19.495	-14.589	1.650	C.2	1	RES1	0.000	
25	 C33	19.768	-13.935	2.855	C.2	1	RES1	0.000	
26	 C34	19.600	-12.544	2.612	C.2	1	RES1	0.000	
27	 C35	19.205	-12.373	1.287	C.2	1	RES1	0.000	
28	 C36	20.373	-14.974	6.471	C.2	1	RES1	0.000	
@<TRIPOS>BOND
1 1 4 1
2 2 6 1
3 2 8 ar
4 2 18 ar
5 3 20 2
6 4 6 1
7 5 11 ar
8 5 12 ar
9 7 12 1
10 7 13 1
11 8 10 ar
12 10 11 1
13 12 14 ar
14 13 15 ar
15 15 17 ar
16 17 19 ar
17 18 28 ar
18 19 20 1
19 19 22 ar
20 9 20 1
21 9 21 1
22 22 23 ar
23 13 23 ar
24 14 24 ar
25 16 24 ar
26 24 25 ar
27 11 25 ar
28 25 26 ar
29 26 27 ar
30 16 27 ar
31 10 28 ar
@<TRIPOS>SUBSTRUCTURE
1	RES1	1	GROUP	1 ****	RES
