# created with PyMOL 2.5.2
@<TRIPOS>MOLECULE
JAK2_6WTQ_TargetProtein
28 31 1                 
SMALL
USER_CHARGES
@<TRIPOS>ATOM
1	  C1	23.995	-12.584	7.053	C.3	1	RES1	0.000	
2	  N1	21.164	-13.103	6.932	N.2	1	RES1	0.000	
3	  O1	21.796	-22.668	6.343	O.2	1	RES1	0.000	
4	  C2	23.073	-12.257	8.230	C.3	1	RES1	0.000	
5	  N2	20.233	-16.106	3.651	N.2	1	RES1	0.000	
6	  C3	21.635	-12.033	7.776	C.3	1	RES1	0.000	
7	  N3	20.005	-17.980	2.184	N.pl3	1	RES1	0.000	
8	  C4	20.961	-13.088	5.563	C.2	1	RES1	0.000	
9	  N4	20.852	-23.890	4.667	N.pl3	1	RES1	0.000	
10	  C5	20.492	-14.333	5.217	C.2	1	RES1	0.000	
11	  C6	20.156	-14.802	3.864	C.2	1	RES1	0.000	
12	  C7	19.956	-16.631	2.439	C.2	1	RES1	0.000	
13	  C8	20.342	-19.119	3.010	C.2	1	RES1	0.000	
14	  N8	19.562	-15.884	1.372	N.2	1	RES1	0.000	
15	  C9	20.721	-19.054	4.350	C.2	1	RES1	0.000	
16	  N9	19.148	-13.612	0.731	N.2	1	RES1	0.000	
17	 C10	20.987	-20.182	5.087	C.2	1	RES1	0.000	
18	 N10	20.919	-14.313	7.493	N.2	1	RES1	0.000	
19	 C11	20.935	-21.442	4.513	C.2	1	RES1	0.000	
20	 C12	21.229	-22.700	5.256	C.2	1	RES1	0.000	
21	 C13	21.056	-25.149	5.274	C.3	1	RES1	0.000	
22	 C40	20.567	-21.543	3.158	C.2	1	RES1	0.000	
23	 C41	20.290	-20.405	2.435	C.2	1	RES1	0.000	
24	 C42	19.498	-14.555	1.623	C.2	1	RES1	0.000	
25	 C43	19.765	-13.933	2.840	C.2	1	RES1	0.000	
26	 C44	19.522	-12.533	2.610	C.2	1	RES1	0.000	
27	 C45	19.164	-12.378	1.301	C.2	1	RES1	0.000	
28	 C46	20.527	-15.064	6.426	C.2	1	RES1	0.000	
@<TRIPOS>BOND
1 1 4 1
2 2 6 1
3 2 8 ar
4 2 18 ar
5 3 20 2
6 4 6 1
7 5 11 ar
8 5 12 ar
9 7 12 1
10 7 13 1
11 8 10 ar
12 10 11 1
13 12 14 ar
14 13 15 ar
15 15 17 ar
16 17 19 ar
17 18 28 ar
18 19 20 1
19 19 22 ar
20 9 20 1
21 9 21 1
22 22 23 ar
23 13 23 ar
24 14 24 ar
25 16 24 ar
26 24 25 ar
27 11 25 ar
28 25 26 ar
29 26 27 ar
30 16 27 ar
31 10 28 ar
@<TRIPOS>SUBSTRUCTURE
1	RES1	1	GROUP	1 ****	RES
