# created with PyMOL 2.5.2
@<TRIPOS>MOLECULE
JAK2_6WTQ_TargetProtein
28 31 1                 
SMALL
USER_CHARGES
@<TRIPOS>ATOM
1	  C1	24.089	-12.645	7.065	C.3	1	RES1	0.000	
2	  N1	21.183	-13.108	6.927	N.2	1	RES1	0.000	
3	  O1	21.777	-22.558	6.360	O.2	1	RES1	0.000	
4	  C2	23.147	-12.248	8.213	C.3	1	RES1	0.000	
5	  N2	20.236	-16.124	3.642	N.2	1	RES1	0.000	
6	  C3	21.687	-11.999	7.741	C.3	1	RES1	0.000	
7	  N3	20.020	-17.999	2.176	N.pl3	1	RES1	0.000	
8	  C4	21.016	-13.092	5.567	C.2	1	RES1	0.000	
9	  N4	20.889	-23.924	4.705	N.pl3	1	RES1	0.000	
10	  C5	20.495	-14.370	5.231	C.2	1	RES1	0.000	
11	  C6	20.127	-14.811	3.884	C.2	1	RES1	0.000	
12	  C7	19.952	-16.634	2.407	C.2	1	RES1	0.000	
13	  C8	20.313	-19.126	2.961	C.2	1	RES1	0.000	
14	  N8	19.563	-15.877	1.379	N.2	1	RES1	0.000	
15	  C9	20.689	-19.050	4.329	C.2	1	RES1	0.000	
16	  N9	19.139	-13.598	0.763	N.2	1	RES1	0.000	
17	 C10	20.988	-20.243	5.043	C.2	1	RES1	0.000	
18	 N10	20.728	-14.248	7.530	N.2	1	RES1	0.000	
19	 C11	20.909	-21.479	4.434	C.2	1	RES1	0.000	
20	 C12	21.242	-22.683	5.246	C.2	1	RES1	0.000	
21	 C13	21.153	-25.158	5.391	C.3	1	RES1	0.000	
22	 C38	20.569	-21.568	3.072	C.2	1	RES1	0.000	
23	 C39	20.280	-20.394	2.372	C.2	1	RES1	0.000	
24	 C40	19.486	-14.553	1.651	C.2	1	RES1	0.000	
25	 C41	19.767	-13.949	2.860	C.2	1	RES1	0.000	
26	 C42	19.594	-12.545	2.642	C.2	1	RES1	0.000	
27	 C43	19.180	-12.373	1.320	C.2	1	RES1	0.000	
28	 C44	20.331	-14.981	6.487	C.2	1	RES1	0.000	
@<TRIPOS>BOND
1 1 4 1
2 2 6 1
3 2 8 ar
4 2 18 ar
5 3 20 2
6 4 6 1
7 5 11 ar
8 5 12 ar
9 7 12 1
10 7 13 1
11 8 10 ar
12 10 11 1
13 12 14 ar
14 13 15 ar
15 15 17 ar
16 17 19 ar
17 18 28 ar
18 19 20 1
19 19 22 ar
20 9 20 1
21 9 21 1
22 22 23 ar
23 13 23 ar
24 14 24 ar
25 16 24 ar
26 24 25 ar
27 11 25 ar
28 25 26 ar
29 26 27 ar
30 16 27 ar
31 10 28 ar
@<TRIPOS>SUBSTRUCTURE
1	RES1	1	GROUP	1 ****	RES
