# created with PyMOL 2.5.2
@<TRIPOS>MOLECULE
JAK2_6WTQ_TargetProtein
28 31 1                 
SMALL
USER_CHARGES
@<TRIPOS>ATOM
1	  C1	24.054	-12.595	7.096	C.3	1	RES1	0.000	
2	  N1	21.178	-13.130	6.923	N.2	1	RES1	0.000	
3	  O1	21.757	-22.531	6.348	O.2	1	RES1	0.000	
4	  C2	23.143	-12.263	8.244	C.3	1	RES1	0.000	
5	  N2	20.216	-16.111	3.643	N.2	1	RES1	0.000	
6	  C3	21.668	-12.039	7.773	C.3	1	RES1	0.000	
7	  N3	19.987	-17.998	2.185	N.pl3	1	RES1	0.000	
8	  C4	20.999	-13.093	5.561	C.2	1	RES1	0.000	
9	  N4	20.921	-23.905	4.707	N.pl3	1	RES1	0.000	
10	  C5	20.501	-14.357	5.226	C.2	1	RES1	0.000	
11	  C6	20.156	-14.781	3.879	C.2	1	RES1	0.000	
12	  C7	19.902	-16.625	2.433	C.2	1	RES1	0.000	
13	  C8	20.278	-19.141	2.958	C.2	1	RES1	0.000	
14	  N8	19.530	-15.862	1.388	N.2	1	RES1	0.000	
15	  C9	20.271	-20.391	2.373	C.2	1	RES1	0.000	
16	  N9	19.152	-13.602	0.737	N.2	1	RES1	0.000	
17	 C10	20.569	-21.562	3.087	C.2	1	RES1	0.000	
18	 N10	20.812	-14.308	7.491	N.2	1	RES1	0.000	
19	 C11	20.897	-21.473	4.472	C.2	1	RES1	0.000	
20	 C12	21.267	-22.691	5.249	C.2	1	RES1	0.000	
21	 C13	21.217	-25.157	5.386	C.3	1	RES1	0.000	
22	 C36	20.926	-20.213	5.066	C.2	1	RES1	0.000	
23	 C37	20.646	-19.068	4.332	C.2	1	RES1	0.000	
24	 C38	19.496	-14.563	1.648	C.2	1	RES1	0.000	
25	 C39	19.778	-13.928	2.832	C.2	1	RES1	0.000	
26	 C40	19.614	-12.545	2.595	C.2	1	RES1	0.000	
27	 C41	19.220	-12.356	1.298	C.2	1	RES1	0.000	
28	 C42	20.395	-15.052	6.468	C.2	1	RES1	0.000	
@<TRIPOS>BOND
1 1 4 1
2 2 6 1
3 2 8 ar
4 2 18 ar
5 3 20 2
6 4 6 1
7 5 11 ar
8 5 12 ar
9 7 12 1
10 7 13 1
11 8 10 ar
12 10 11 1
13 12 14 ar
14 13 15 ar
15 15 17 ar
16 17 19 ar
17 18 28 ar
18 19 20 1
19 19 22 ar
20 9 20 1
21 9 21 1
22 22 23 ar
23 13 23 ar
24 14 24 ar
25 16 24 ar
26 24 25 ar
27 11 25 ar
28 25 26 ar
29 26 27 ar
30 16 27 ar
31 10 28 ar
@<TRIPOS>SUBSTRUCTURE
1	RES1	1	GROUP	1 ****	RES
