# created with PyMOL 2.5.2
@<TRIPOS>MOLECULE
JAK2_6VGL_TargetProtein
23 26 1                 
SMALL
USER_CHARGES
@<TRIPOS>ATOM
1	  C1	10.163	-25.069	55.916	C.1	1	RES1	0.000	
2	  N1	11.211	-24.878	55.514	N.1	1	RES1	0.000	
3	  C2	8.820	-25.365	56.399	C.3	1	RES1	0.000	
4	  N2	8.326	-27.067	54.668	N.2	1	RES1	0.000	
5	  C3	7.833	-25.854	55.339	C.3	1	RES1	0.000	
6	  N3	10.233	-30.291	51.987	N.2	1	RES1	0.000	
7	  C4	6.372	-25.965	55.859	C.3	1	RES1	0.000	
8	  C5	5.368	-26.352	54.780	C.3	1	RES1	0.000	
9	  C6	4.030	-26.028	55.404	C.3	1	RES1	0.000	
10	  C7	4.264	-24.938	56.395	C.3	1	RES1	0.000	
11	  C8	5.783	-24.706	56.396	C.3	1	RES1	0.000	
12	  C9	8.912	-27.154	53.426	C.2	1	RES1	0.000	
13	  N9	10.976	-30.136	49.717	N.2	1	RES1	0.000	
14	 C10	9.187	-28.483	53.210	C.2	1	RES1	0.000	
15	 N10	10.572	-27.985	48.706	N.2	1	RES1	0.000	
16	 C11	9.790	-29.009	51.995	C.2	1	RES1	0.000	
17	 N11	8.153	-28.269	55.248	N.2	1	RES1	0.000	
18	 C12	10.777	-30.784	50.865	C.2	1	RES1	0.000	
19	 C37	10.506	-28.886	49.740	C.2	1	RES1	0.000	
20	 C38	9.923	-28.228	50.814	C.2	1	RES1	0.000	
21	 C39	9.571	-26.906	50.369	C.2	1	RES1	0.000	
22	 C40	10.002	-26.801	49.069	C.2	1	RES1	0.000	
23	 C41	8.685	-29.118	54.388	C.2	1	RES1	0.000	
@<TRIPOS>BOND
1 1 2 3
2 1 3 1
3 3 5 1
4 4 5 1
5 4 12 ar
6 5 7 1
7 7 8 1
8 7 11 1
9 8 9 1
10 9 10 1
11 10 11 1
12 12 14 ar
13 14 16 1
14 14 23 ar
15 15 19 ar
16 15 22 ar
17 6 16 ar
18 16 20 ar
19 4 17 ar
20 17 23 ar
21 6 18 ar
22 13 18 ar
23 13 19 ar
24 19 20 ar
25 20 21 ar
26 21 22 ar
@<TRIPOS>SUBSTRUCTURE
1	RES1	1	GROUP	1 ****	RES
