# created with PyMOL 2.5.2
@<TRIPOS>MOLECULE
BTK_6J6M_TargetProtein
35 39 1                 
SMALL
USER_CHARGES
@<TRIPOS>ATOM
1	  C1	-1.756	18.272	109.565	C.2	1	RES1	0.000	
2	  N1	-2.788	19.193	109.588	N.pl3	1	RES1	0.000	
3	  O1	-0.626	18.588	109.184	O.2	1	RES1	0.000	
4	  C2	-2.087	16.949	110.045	C.2	1	RES1	0.000	
5	  N2	0.204	15.902	110.034	N.pl3	1	RES1	0.000	
6	  O2	-0.795	10.219	116.325	O.2	1	RES1	0.000	
7	  C3	-1.161	15.956	110.231	C.2	1	RES1	0.000	
8	  N3	-1.139	12.225	115.282	N.pl3	1	RES1	0.000	
9	  C4	0.962	14.667	110.279	C.3	1	RES1	0.000	
10	  C5	0.032	13.437	110.219	C.3	1	RES1	0.000	
11	  C6	-1.202	13.597	111.149	C.3	1	RES1	0.000	
12	  C7	-0.902	13.557	112.682	C.3	1	RES1	0.000	
13	  O7	-8.591	18.430	110.096	O.3	1	RES1	0.000	
14	  C8	-2.190	13.584	113.514	C.3	1	RES1	0.000	
15	  N8	-1.822	14.889	110.770	N.2	1	RES1	0.000	
16	  C9	-1.923	13.411	115.017	C.3	1	RES1	0.000	
17	  N9	-3.151	15.081	110.836	N.2	1	RES1	0.000	
18	 C10	-1.541	11.158	116.119	C.2	1	RES1	0.000	
19	 C11	-2.878	11.291	116.791	C.3	1	RES1	0.000	
20	 C12	-2.830	10.887	118.258	C.3	1	RES1	0.000	
21	 C36	0.136	12.160	114.570	C.3	1	RES1	0.000	
22	 C37	-0.078	12.306	113.042	C.3	1	RES1	0.000	
23	 C38	-3.326	16.324	110.400	C.2	1	RES1	0.000	
24	 C39	-4.682	16.862	110.290	C.2	1	RES1	0.000	
25	 C40	-5.284	17.075	109.052	C.2	1	RES1	0.000	
26	 C41	-6.593	17.581	108.967	C.2	1	RES1	0.000	
27	 C42	-7.312	17.873	110.121	C.2	1	RES1	0.000	
28	 C43	-8.867	19.377	111.100	C.2	1	RES1	0.000	
29	 C44	-7.978	20.324	111.526	C.2	1	RES1	0.000	
30	 C45	-8.349	21.246	112.519	C.2	1	RES1	0.000	
31	 C46	-9.629	21.210	113.069	C.2	1	RES1	0.000	
32	 C47	-10.511	20.232	112.628	C.2	1	RES1	0.000	
33	 C48	-10.165	19.335	111.657	C.2	1	RES1	0.000	
34	 C49	-6.690	17.701	111.374	C.2	1	RES1	0.000	
35	 C50	-5.407	17.167	111.459	C.2	1	RES1	0.000	
@<TRIPOS>BOND
1 1 4 1
2 1 2 1
3 1 3 2
4 4 7 ar
5 4 23 ar
6 5 7 1
7 5 9 1
8 7 15 ar
9 8 16 1
10 8 21 1
11 9 10 1
12 10 11 1
13 11 12 1
14 11 15 1
15 12 14 1
16 14 16 1
17 15 17 ar
18 6 18 2
19 8 18 1
20 18 19 1
21 19 20 1
22 21 22 1
23 12 22 1
24 17 23 ar
25 23 24 1
26 24 25 ar
27 24 35 ar
28 25 26 ar
29 26 27 ar
30 13 27 1
31 27 34 ar
32 13 28 1
33 28 29 ar
34 28 33 ar
35 29 30 ar
36 30 31 ar
37 31 32 ar
38 32 33 ar
39 34 35 ar
@<TRIPOS>SUBSTRUCTURE
1	RES1	1	GROUP	1 ****	RES
