# created with PyMOL 2.5.2
@<TRIPOS>MOLECULE
BTK_6J6M_TargetProtein
35 39 1                 
SMALL
USER_CHARGES
@<TRIPOS>ATOM
1	  C1	-1.724	18.286	109.584	C.2	1	RES1	0.000	
2	  N1	-2.733	19.196	109.629	N.pl3	1	RES1	0.000	
3	  O1	-0.601	18.601	109.218	O.2	1	RES1	0.000	
4	  C2	-2.062	16.940	110.067	C.2	1	RES1	0.000	
5	  N2	0.182	15.871	110.009	N.pl3	1	RES1	0.000	
6	  O2	-0.919	10.171	116.373	O.2	1	RES1	0.000	
7	  C3	-1.133	15.934	110.229	C.2	1	RES1	0.000	
8	  N3	-1.099	12.167	115.220	N.pl3	1	RES1	0.000	
9	  C4	0.937	14.626	110.262	C.3	1	RES1	0.000	
10	  C5	0.030	13.404	110.175	C.3	1	RES1	0.000	
11	  C6	-1.190	13.575	111.078	C.3	1	RES1	0.000	
12	  C7	-0.874	13.487	112.636	C.3	1	RES1	0.000	
13	  C8	-2.169	13.521	113.470	C.3	1	RES1	0.000	
14	  N8	-1.816	14.863	110.730	N.2	1	RES1	0.000	
15	  O8	-8.572	18.436	110.152	O.3	1	RES1	0.000	
16	  C9	-1.894	13.354	114.949	C.3	1	RES1	0.000	
17	  N9	-3.138	15.042	110.819	N.2	1	RES1	0.000	
18	 C10	-1.554	11.203	116.123	C.2	1	RES1	0.000	
19	 C11	-2.888	11.468	116.808	C.3	1	RES1	0.000	
20	 C12	-2.860	11.163	118.315	C.3	1	RES1	0.000	
21	 C35	0.155	12.121	114.476	C.3	1	RES1	0.000	
22	 C36	-0.062	12.251	112.970	C.3	1	RES1	0.000	
23	 C37	-3.312	16.330	110.402	C.2	1	RES1	0.000	
24	 C38	-4.657	16.863	110.313	C.2	1	RES1	0.000	
25	 C39	-5.263	17.097	109.076	C.2	1	RES1	0.000	
26	 C40	-6.545	17.636	108.974	C.2	1	RES1	0.000	
27	 C41	-7.280	17.900	110.174	C.2	1	RES1	0.000	
28	 C42	-8.906	19.374	111.160	C.2	1	RES1	0.000	
29	 C43	-7.987	20.333	111.559	C.2	1	RES1	0.000	
30	 C44	-8.395	21.252	112.527	C.2	1	RES1	0.000	
31	 C45	-9.699	21.206	113.058	C.2	1	RES1	0.000	
32	 C46	-10.604	20.258	112.617	C.2	1	RES1	0.000	
33	 C47	-10.189	19.321	111.647	C.2	1	RES1	0.000	
34	 C48	-6.707	17.659	111.411	C.2	1	RES1	0.000	
35	 C49	-5.376	17.145	111.476	C.2	1	RES1	0.000	
@<TRIPOS>BOND
1 1 4 1
2 1 2 1
3 1 3 2
4 4 7 ar
5 4 23 ar
6 5 7 1
7 5 9 1
8 7 14 ar
9 8 16 1
10 8 21 1
11 9 10 1
12 10 11 1
13 11 12 1
14 11 14 1
15 12 13 1
16 13 16 1
17 14 17 ar
18 6 18 2
19 8 18 1
20 18 19 1
21 19 20 1
22 21 22 1
23 12 22 1
24 17 23 ar
25 23 24 1
26 24 25 ar
27 24 35 ar
28 25 26 ar
29 26 27 ar
30 15 27 1
31 27 34 ar
32 15 28 1
33 28 29 ar
34 28 33 ar
35 29 30 ar
36 30 31 ar
37 31 32 ar
38 32 33 ar
39 34 35 ar
@<TRIPOS>SUBSTRUCTURE
1	RES1	1	GROUP	1 ****	RES
