# created with PyMOL 2.5.2
@<TRIPOS>MOLECULE
BTK_6J6M_TargetProtein
35 39 1                 
SMALL
USER_CHARGES
@<TRIPOS>ATOM
1	  C1	-1.754	18.270	109.615	C.2	1	RES1	0.000	
2	  N1	-2.736	19.189	109.649	N.pl3	1	RES1	0.000	
3	  O1	-0.615	18.614	109.256	O.2	1	RES1	0.000	
4	  C2	-2.078	16.952	110.069	C.2	1	RES1	0.000	
5	  N2	0.186	15.844	109.995	N.pl3	1	RES1	0.000	
6	  O2	-0.926	10.133	116.335	O.2	1	RES1	0.000	
7	  C3	-1.141	15.923	110.237	C.2	1	RES1	0.000	
8	  N3	-1.060	12.167	115.212	N.pl3	1	RES1	0.000	
9	  C4	0.952	14.609	110.235	C.3	1	RES1	0.000	
10	  C5	0.007	13.425	110.157	C.3	1	RES1	0.000	
11	  C6	-1.199	13.556	111.102	C.3	1	RES1	0.000	
12	  C7	-0.877	13.507	112.609	C.3	1	RES1	0.000	
13	  C8	-2.166	13.517	113.471	C.3	1	RES1	0.000	
14	  O8	-8.559	18.464	110.073	O.3	1	RES1	0.000	
15	  C9	-1.866	13.356	114.970	C.3	1	RES1	0.000	
16	  N9	-1.836	14.845	110.730	N.2	1	RES1	0.000	
17	 C10	-1.524	11.185	116.122	C.2	1	RES1	0.000	
18	 N10	-3.146	15.049	110.837	N.2	1	RES1	0.000	
19	 C11	-2.871	11.469	116.818	C.3	1	RES1	0.000	
20	 C12	-2.828	11.154	118.317	C.3	1	RES1	0.000	
21	 C32	0.205	12.109	114.486	C.3	1	RES1	0.000	
22	 C33	-0.055	12.254	112.974	C.3	1	RES1	0.000	
23	 C34	-3.340	16.333	110.424	C.2	1	RES1	0.000	
24	 C35	-4.687	16.861	110.360	C.2	1	RES1	0.000	
25	 C36	-5.286	17.096	109.095	C.2	1	RES1	0.000	
26	 C37	-6.577	17.609	109.053	C.2	1	RES1	0.000	
27	 C38	-7.278	17.892	110.210	C.2	1	RES1	0.000	
28	 C39	-8.897	19.424	111.038	C.2	1	RES1	0.000	
29	 C40	-7.993	20.385	111.527	C.2	1	RES1	0.000	
30	 C41	-8.419	21.284	112.518	C.2	1	RES1	0.000	
31	 C42	-9.697	21.179	113.054	C.2	1	RES1	0.000	
32	 C43	-10.598	20.231	112.580	C.2	1	RES1	0.000	
33	 C44	-10.199	19.334	111.578	C.2	1	RES1	0.000	
34	 C45	-6.673	17.684	111.449	C.2	1	RES1	0.000	
35	 C46	-5.378	17.150	111.538	C.2	1	RES1	0.000	
@<TRIPOS>BOND
1 1 4 1
2 1 2 1
3 1 3 2
4 4 7 ar
5 4 23 ar
6 5 7 1
7 5 9 1
8 7 16 ar
9 8 15 1
10 8 21 1
11 9 10 1
12 10 11 1
13 11 12 1
14 11 16 1
15 12 13 1
16 13 15 1
17 6 17 2
18 8 17 1
19 17 19 1
20 16 18 ar
21 18 23 ar
22 19 20 1
23 21 22 1
24 12 22 1
25 23 24 1
26 24 25 ar
27 24 35 ar
28 25 26 ar
29 26 27 ar
30 14 27 1
31 27 34 ar
32 14 28 1
33 28 29 ar
34 28 33 ar
35 29 30 ar
36 30 31 ar
37 31 32 ar
38 32 33 ar
39 34 35 ar
@<TRIPOS>SUBSTRUCTURE
1	RES1	1	GROUP	1 ****	RES
