# created with PyMOL 2.5.2
@<TRIPOS>MOLECULE
ALK_4MKC_TargetProtein
38 41 1                 
SMALL
USER_CHARGES
@<TRIPOS>ATOM
1	 CL1	-21.007	15.016	-10.475	Cl	1	RES1	0.000	
2	  C1	-20.208	7.065	-7.477	C.3	1	RES1	0.000	
3	  N1	-23.808	10.066	-9.112	N.pl3	1	RES1	0.000	
4	  O1	-18.032	14.414	-8.900	O.2	1	RES1	0.000	
5	  S1	-17.091	13.433	-8.367	S.O2	1	RES1	0.000	
6	  C2	-21.692	7.416	-7.531	C.2	1	RES1	0.000	
7	  N2	-23.679	12.075	-10.413	N.2	1	RES1	0.000	
8	  O2	-15.887	13.863	-7.678	O.2	1	RES1	0.000	
9	  C3	-22.057	8.545	-8.268	C.2	1	RES1	0.000	
10	  N3	-20.147	13.013	-8.365	N.pl3	1	RES1	0.000	
11	  O3	-25.696	8.567	-7.921	O.3	1	RES1	0.000	
12	  C4	-23.409	8.923	-8.384	C.2	1	RES1	0.000	
13	  N4	-22.023	11.545	-8.786	N.2	1	RES1	0.000	
14	  C5	-23.192	11.273	-9.469	C.2	1	RES1	0.000	
15	  N5	-21.198	3.984	-3.768	N.3	1	RES1	0.000	
16	  C6	-22.984	13.191	-10.692	C.2	1	RES1	0.000	
17	  C7	-21.829	13.570	-10.057	C.2	1	RES1	0.000	
18	  C8	-21.326	12.679	-9.083	C.2	1	RES1	0.000	
19	  C9	-19.446	12.284	-7.334	C.2	1	RES1	0.000	
20	 C10	-20.122	11.442	-6.446	C.2	1	RES1	0.000	
21	 C11	-19.419	10.743	-5.469	C.2	1	RES1	0.000	
22	 C12	-18.029	10.897	-5.335	C.2	1	RES1	0.000	
23	 C13	-17.346	11.733	-6.213	C.2	1	RES1	0.000	
24	 C14	-18.042	12.415	-7.224	C.2	1	RES1	0.000	
25	 C15	-16.615	12.322	-9.703	C.3	1	RES1	0.000	
26	 C16	-15.479	11.416	-9.333	C.3	1	RES1	0.000	
27	 C17	-16.280	13.127	-10.973	C.3	1	RES1	0.000	
28	 C18	-24.383	8.144	-7.763	C.2	1	RES1	0.000	
29	 C19	-26.804	7.710	-7.525	C.3	1	RES1	0.000	
30	 C20	-28.055	8.536	-7.324	C.3	1	RES1	0.000	
31	 C21	-26.371	7.006	-6.246	C.3	1	RES1	0.000	
32	 C22	-24.010	6.989	-7.019	C.2	1	RES1	0.000	
33	 C23	-22.680	6.627	-6.904	C.2	1	RES1	0.000	
34	 C24	-22.312	5.356	-6.117	C.3	1	RES1	0.000	
35	 C25	-23.082	5.228	-4.806	C.3	1	RES1	0.000	
36	 C26	-22.637	3.997	-4.034	C.3	1	RES1	0.000	
37	 C54	-20.436	4.047	-5.027	C.3	1	RES1	0.000	
38	 C55	-20.796	5.260	-5.854	C.3	1	RES1	0.000	
@<TRIPOS>BOND
1 1 17 1
2 2 6 1
3 3 12 1
4 3 14 1
5 4 5 2
6 5 8 2
7 5 24 1
8 5 25 1
9 6 9 ar
10 6 33 ar
11 7 14 ar
12 7 16 ar
13 9 12 ar
14 10 18 1
15 10 19 1
16 13 14 ar
17 13 18 ar
18 15 37 1
19 16 17 ar
20 17 18 ar
21 19 20 ar
22 20 21 ar
23 21 22 ar
24 22 23 ar
25 23 24 ar
26 19 24 ar
27 25 26 1
28 25 27 1
29 11 28 1
30 12 28 ar
31 28 32 ar
32 11 29 1
33 29 30 1
34 29 31 1
35 32 33 ar
36 33 34 1
37 34 35 1
38 34 38 1
39 35 36 1
40 15 36 1
41 37 38 1
@<TRIPOS>SUBSTRUCTURE
1	RES1	1	GROUP	1 ****	RES
