# created with PyMOL 2.5.2
@<TRIPOS>MOLECULE
BTK_6J6M_TargetProtein
35 39 1                 
SMALL
USER_CHARGES
@<TRIPOS>ATOM
1	  O1	-1.295	9.920	116.353	O.2	1	RES1	0.000	
2	  C2	-0.508	11.937	118.319	C.3	1	RES1	0.000	
3	  N2	-1.933	11.613	114.938	N.pl3	1	RES1	0.000	
4	  O2	-0.628	18.775	109.144	O.2	1	RES1	0.000	
5	  C3	-1.702	12.062	117.341	C.3	1	RES1	0.000	
6	  N3	0.392	16.091	110.150	N.pl3	1	RES1	0.000	
7	  O3	-8.474	18.379	110.091	O.3	1	RES1	0.000	
8	  C4	-1.606	11.110	116.180	C.2	1	RES1	0.000	
9	  N4	-2.829	19.224	109.559	N.pl3	1	RES1	0.000	
10	  C5	-1.940	10.871	113.673	C.3	1	RES1	0.000	
11	  N5	-2.974	15.160	110.812	N.2	1	RES1	0.000	
12	  C6	-1.187	11.604	112.561	C.3	1	RES1	0.000	
13	  N6	-1.637	15.026	110.825	N.2	1	RES1	0.000	
14	  C7	-1.698	13.033	112.361	C.3	1	RES1	0.000	
15	  C8	-0.980	13.768	111.216	C.3	1	RES1	0.000	
16	  C9	0.538	14.000	111.450	C.3	1	RES1	0.000	
17	 C10	1.134	14.828	110.337	C.3	1	RES1	0.000	
18	 C11	-0.949	16.132	110.338	C.2	1	RES1	0.000	
19	 C12	-1.944	17.068	110.084	C.2	1	RES1	0.000	
20	 C13	-1.715	18.404	109.580	C.2	1	RES1	0.000	
21	 C14	-3.166	16.427	110.401	C.2	1	RES1	0.000	
22	 C15	-4.539	16.944	110.326	C.2	1	RES1	0.000	
23	 C16	-5.147	17.194	109.106	C.2	1	RES1	0.000	
24	 C17	-6.439	17.701	109.037	C.2	1	RES1	0.000	
25	 C18	-7.164	17.916	110.211	C.2	1	RES1	0.000	
26	 C19	-8.927	19.304	111.024	C.2	1	RES1	0.000	
27	 C20	-8.156	20.407	111.424	C.2	1	RES1	0.000	
28	 C21	-8.670	21.306	112.380	C.2	1	RES1	0.000	
29	 C22	-9.938	21.124	112.874	C.2	1	RES1	0.000	
30	 C23	-10.722	20.024	112.491	C.2	1	RES1	0.000	
31	 C24	-10.187	19.130	111.550	C.2	1	RES1	0.000	
32	 C25	-6.583	17.627	111.458	C.2	1	RES1	0.000	
33	 C26	-5.281	17.166	111.531	C.2	1	RES1	0.000	
34	 C27	-1.649	13.771	113.733	C.3	1	RES1	0.000	
35	 C28	-2.403	13.004	114.830	C.3	1	RES1	0.000	
@<TRIPOS>BOND
1 1 8 2
2 2 5 1
3 3 8 1
4 3 10 1
5 3 35 1
6 5 8 1
7 10 12 1
8 11 13 ar
9 12 14 1
10 13 15 1
11 14 15 1
12 15 16 1
13 6 17 1
14 16 17 1
15 6 18 1
16 13 18 ar
17 18 19 ar
18 19 20 1
19 19 21 ar
20 4 20 2
21 9 20 1
22 11 21 ar
23 21 22 1
24 22 23 ar
25 22 33 ar
26 23 24 ar
27 24 25 ar
28 7 25 1
29 25 32 ar
30 7 26 1
31 26 27 ar
32 26 31 ar
33 27 28 ar
34 28 29 ar
35 29 30 ar
36 30 31 ar
37 32 33 ar
38 14 34 1
39 34 35 1
@<TRIPOS>SUBSTRUCTURE
1	RES1	1	GROUP	1 ****	RES
