# created with PyMOL 2.5.2
@<TRIPOS>MOLECULE
BTK_6J6M_TargetProtein
35 39 1                 
SMALL
USER_CHARGES
@<TRIPOS>ATOM
1	  C1	-1.759	18.247	109.381	C.2	1	RES1	0.000	
2	  N1	-2.791	19.109	109.300	N.pl3	1	RES1	0.000	
3	  O1	-0.633	18.530	108.942	O.2	1	RES1	0.000	
4	  C2	-2.058	16.936	109.925	C.2	1	RES1	0.000	
5	  N2	0.234	15.934	110.108	N.pl3	1	RES1	0.000	
6	  O2	-0.722	10.247	116.320	O.2	1	RES1	0.000	
7	  C3	-1.107	15.966	110.246	C.2	1	RES1	0.000	
8	  N3	-1.239	12.246	115.298	N.pl3	1	RES1	0.000	
9	  C4	0.999	14.767	110.466	C.3	1	RES1	0.000	
10	  C5	0.144	13.506	110.355	C.3	1	RES1	0.000	
11	  C6	-1.149	13.659	111.163	C.3	1	RES1	0.000	
12	  C7	-0.979	13.611	112.739	C.3	1	RES1	0.000	
13	  O7	-8.542	18.426	110.159	O.3	1	RES1	0.000	
14	  C8	-2.330	13.503	113.453	C.3	1	RES1	0.000	
15	  N8	-1.795	14.893	110.705	N.2	1	RES1	0.000	
16	  C9	-2.151	13.356	114.973	C.3	1	RES1	0.000	
17	  N9	-3.132	15.029	110.700	N.2	1	RES1	0.000	
18	 C10	-1.526	11.177	116.106	C.2	1	RES1	0.000	
19	 C11	-2.922	11.127	116.761	C.3	1	RES1	0.000	
20	 C12	-2.880	10.738	118.209	C.3	1	RES1	0.000	
21	 C36	0.062	12.384	114.693	C.3	1	RES1	0.000	
22	 C37	-0.022	12.491	113.175	C.3	1	RES1	0.000	
23	 C38	-3.302	16.311	110.295	C.2	1	RES1	0.000	
24	 C39	-4.657	16.873	110.243	C.2	1	RES1	0.000	
25	 C40	-5.357	17.133	111.410	C.2	1	RES1	0.000	
26	 C41	-6.640	17.649	111.361	C.2	1	RES1	0.000	
27	 C42	-7.248	17.935	110.163	C.2	1	RES1	0.000	
28	 C43	-8.874	19.364	111.145	C.2	1	RES1	0.000	
29	 C44	-8.033	20.441	111.505	C.2	1	RES1	0.000	
30	 C45	-8.440	21.309	112.500	C.2	1	RES1	0.000	
31	 C46	-9.642	21.124	113.158	C.2	1	RES1	0.000	
32	 C47	-10.479	20.060	112.838	C.2	1	RES1	0.000	
33	 C48	-10.095	19.152	111.826	C.2	1	RES1	0.000	
34	 C49	-6.566	17.644	108.944	C.2	1	RES1	0.000	
35	 C50	-5.274	17.112	108.985	C.2	1	RES1	0.000	
@<TRIPOS>BOND
1 1 4 1
2 1 2 1
3 1 3 2
4 4 7 ar
5 4 23 ar
6 5 7 1
7 5 9 1
8 7 15 ar
9 8 16 1
10 8 21 1
11 9 10 1
12 10 11 1
13 11 12 1
14 11 15 1
15 12 14 1
16 14 16 1
17 15 17 ar
18 6 18 2
19 8 18 1
20 18 19 1
21 19 20 1
22 21 22 1
23 12 22 1
24 17 23 ar
25 23 24 1
26 24 25 ar
27 24 35 ar
28 25 26 ar
29 26 27 ar
30 13 27 1
31 27 34 ar
32 13 28 1
33 28 29 ar
34 28 33 ar
35 29 30 ar
36 30 31 ar
37 31 32 ar
38 32 33 ar
39 34 35 ar
@<TRIPOS>SUBSTRUCTURE
1	RES1	1	GROUP	1 ****	RES
