# created with PyMOL 2.5.2
@<TRIPOS>MOLECULE
BTK_6J6M_TargetProtein
35 39 1                 
SMALL
USER_CHARGES
@<TRIPOS>ATOM
1	  C1	-1.811	18.276	109.466	C.2	1	RES1	0.000	
2	  N1	-2.889	19.123	109.454	N.pl3	1	RES1	0.000	
3	  O1	-0.699	18.624	109.031	O.2	1	RES1	0.000	
4	  C2	-2.065	16.954	109.998	C.2	1	RES1	0.000	
5	  N2	0.241	15.869	110.050	N.pl3	1	RES1	0.000	
6	  O2	-0.768	10.214	116.309	O.2	1	RES1	0.000	
7	  C3	-1.109	15.975	110.259	C.2	1	RES1	0.000	
8	  N3	-1.221	12.249	115.285	N.pl3	1	RES1	0.000	
9	  C4	1.000	14.676	110.378	C.3	1	RES1	0.000	
10	  C5	0.092	13.426	110.333	C.3	1	RES1	0.000	
11	  C6	-1.194	13.652	111.181	C.3	1	RES1	0.000	
12	  C7	-0.954	13.598	112.706	C.3	1	RES1	0.000	
13	  C8	-2.270	13.551	113.487	C.3	1	RES1	0.000	
14	  O8	-8.528	18.486	110.076	O.3	1	RES1	0.000	
15	  C9	-2.061	13.397	115.009	C.3	1	RES1	0.000	
16	  N9	-1.785	14.891	110.766	N.2	1	RES1	0.000	
17	 C10	-1.548	11.180	116.115	C.2	1	RES1	0.000	
18	 N10	-3.130	15.069	110.741	N.2	1	RES1	0.000	
19	 C11	-2.881	11.229	116.799	C.3	1	RES1	0.000	
20	 C12	-2.809	10.830	118.271	C.3	1	RES1	0.000	
21	 C33	0.112	12.277	114.660	C.3	1	RES1	0.000	
22	 C34	-0.048	12.421	113.136	C.3	1	RES1	0.000	
23	 C35	-3.317	16.298	110.304	C.2	1	RES1	0.000	
24	 C36	-4.657	16.858	110.238	C.2	1	RES1	0.000	
25	 C37	-5.254	17.162	109.012	C.2	1	RES1	0.000	
26	 C38	-6.505	17.699	108.912	C.2	1	RES1	0.000	
27	 C39	-7.265	17.915	110.100	C.2	1	RES1	0.000	
28	 C40	-8.855	19.372	111.120	C.2	1	RES1	0.000	
29	 C41	-7.991	20.373	111.548	C.2	1	RES1	0.000	
30	 C42	-8.393	21.250	112.605	C.2	1	RES1	0.000	
31	 C43	-9.619	21.064	113.176	C.2	1	RES1	0.000	
32	 C44	-10.506	20.090	112.724	C.2	1	RES1	0.000	
33	 C45	-10.107	19.240	111.700	C.2	1	RES1	0.000	
34	 C46	-6.705	17.640	111.308	C.2	1	RES1	0.000	
35	 C47	-5.411	17.127	111.431	C.2	1	RES1	0.000	
@<TRIPOS>BOND
1 1 4 1
2 1 2 1
3 1 3 2
4 4 7 ar
5 4 23 ar
6 5 7 1
7 5 9 1
8 7 16 ar
9 8 15 1
10 8 21 1
11 9 10 1
12 10 11 1
13 11 12 1
14 11 16 1
15 12 13 1
16 13 15 1
17 6 17 2
18 8 17 1
19 17 19 1
20 16 18 ar
21 18 23 ar
22 19 20 1
23 21 22 1
24 12 22 1
25 23 24 1
26 24 25 ar
27 24 35 ar
28 25 26 ar
29 26 27 ar
30 14 27 1
31 27 34 ar
32 14 28 1
33 28 29 ar
34 28 33 ar
35 29 30 ar
36 30 31 ar
37 31 32 ar
38 32 33 ar
39 34 35 ar
@<TRIPOS>SUBSTRUCTURE
1	RES1	1	GROUP	1 ****	RES
