# created with PyMOL 2.5.2
@<TRIPOS>MOLECULE
CDK6_2EUF_TargetProtein
33 37 1                 
SMALL
USER_CHARGES
@<TRIPOS>ATOM
1	  C1	34.718	27.560	59.458	C.3	1	RES1	0.000	
2	  N1	31.423	22.965	63.593	N.2	1	RES1	0.000	
3	  O1	32.686	28.683	60.050	O.2	1	RES1	0.000	
4	  C2	33.285	27.616	59.923	C.2	1	RES1	0.000	
5	  N2	30.263	20.997	62.826	N.pl3	1	RES1	0.000	
6	  C3	32.631	26.305	60.293	C.2	1	RES1	0.000	
7	  N3	27.850	16.944	59.689	N.pl3	1	RES1	0.000	
8	  C4	32.631	25.958	61.619	C.2	1	RES1	0.000	
9	  N4	26.875	14.869	57.944	N.3	1	RES1	0.000	
10	  C5	33.202	26.802	62.740	C.3	1	RES1	0.000	
11	  C6	32.020	24.659	61.972	C.2	1	RES1	0.000	
12	  C7	31.983	24.146	63.257	C.2	1	RES1	0.000	
13	  C8	30.844	22.248	62.612	C.2	1	RES1	0.000	
14	  C9	29.684	20.032	61.991	C.2	1	RES1	0.000	
15	  N9	29.478	18.831	62.527	N.2	1	RES1	0.000	
16	 C10	29.300	20.318	60.666	C.2	1	RES1	0.000	
17	 N10	30.850	22.665	61.311	N.2	1	RES1	0.000	
18	 O10	32.080	25.854	58.088	O.2	1	RES1	0.000	
19	 C11	28.713	19.298	59.910	C.2	1	RES1	0.000	
20	 N11	31.397	24.280	59.640	N.2	1	RES1	0.000	
21	 C12	28.448	18.019	60.442	C.2	1	RES1	0.000	
22	 C13	28.567	15.653	59.547	C.3	1	RES1	0.000	
23	 C14	27.627	14.513	59.144	C.3	1	RES1	0.000	
24	 C38	26.067	16.074	58.195	C.3	1	RES1	0.000	
25	 C39	26.926	17.277	58.616	C.3	1	RES1	0.000	
26	 C40	28.882	17.878	61.759	C.2	1	RES1	0.000	
27	 C41	31.409	23.860	60.991	C.2	1	RES1	0.000	
28	 C42	30.752	23.434	58.588	C.3	1	RES1	0.000	
29	 C43	29.858	24.169	57.603	C.3	1	RES1	0.000	
30	 C44	28.557	23.390	57.562	C.3	1	RES1	0.000	
31	 C45	28.921	22.014	58.050	C.3	1	RES1	0.000	
32	 C46	29.938	22.274	59.144	C.3	1	RES1	0.000	
33	 C47	32.018	25.464	59.243	C.2	1	RES1	0.000	
@<TRIPOS>BOND
1 1 4 1
2 2 12 ar
3 2 13 ar
4 3 4 2
5 4 6 1
6 5 13 1
7 5 14 1
8 6 8 ar
9 6 33 ar
10 7 25 1
11 8 10 1
12 8 11 ar
13 11 12 ar
14 14 15 ar
15 14 16 ar
16 16 19 ar
17 13 17 ar
18 17 27 ar
19 18 33 2
20 19 21 ar
21 20 27 ar
22 20 28 1
23 20 33 ar
24 7 21 1
25 21 26 ar
26 7 22 1
27 22 23 1
28 9 23 1
29 9 24 1
30 24 25 1
31 15 26 ar
32 11 27 ar
33 28 29 1
34 28 32 1
35 29 30 1
36 30 31 1
37 31 32 1
@<TRIPOS>SUBSTRUCTURE
1	RES1	1	GROUP	1 ****	RES
