# created with PyMOL 2.5.2
@<TRIPOS>MOLECULE
CDK6_2EUF_TargetProtein
33 37 1                 
SMALL
USER_CHARGES
@<TRIPOS>ATOM
1	  C1	34.663	27.701	59.510	C.3	1	RES1	0.000	
2	  N1	31.362	22.957	63.567	N.2	1	RES1	0.000	
3	  O1	32.605	28.710	60.096	O.2	1	RES1	0.000	
4	  C2	33.238	27.677	60.011	C.2	1	RES1	0.000	
5	  N2	30.218	21.011	62.759	N.pl3	1	RES1	0.000	
6	  C3	32.645	26.353	60.361	C.2	1	RES1	0.000	
7	  N3	27.849	16.906	59.648	N.pl3	1	RES1	0.000	
8	  C4	32.672	25.957	61.639	C.2	1	RES1	0.000	
9	  N4	26.600	14.612	58.396	N.3	1	RES1	0.000	
10	  C5	33.349	26.712	62.767	C.3	1	RES1	0.000	
11	  C6	32.036	24.658	61.976	C.2	1	RES1	0.000	
12	  C7	31.962	24.120	63.254	C.2	1	RES1	0.000	
13	  C8	30.838	22.242	62.548	C.2	1	RES1	0.000	
14	  C9	29.618	20.043	61.917	C.2	1	RES1	0.000	
15	  N9	29.389	18.852	62.499	N.2	1	RES1	0.000	
16	 C10	29.296	20.265	60.589	C.2	1	RES1	0.000	
17	 N10	30.859	22.679	61.271	N.2	1	RES1	0.000	
18	 C11	28.702	19.262	59.838	C.2	1	RES1	0.000	
19	 N11	31.485	24.313	59.632	N.2	1	RES1	0.000	
20	 O11	31.995	25.992	58.150	O.2	1	RES1	0.000	
21	 C12	28.446	18.000	60.402	C.2	1	RES1	0.000	
22	 C13	28.578	15.616	59.572	C.3	1	RES1	0.000	
23	 C14	28.065	14.772	58.411	C.3	1	RES1	0.000	
24	 C39	25.995	15.962	58.300	C.3	1	RES1	0.000	
25	 C40	26.386	16.889	59.455	C.3	1	RES1	0.000	
26	 C41	28.834	17.897	61.729	C.2	1	RES1	0.000	
27	 C42	31.456	23.864	60.990	C.2	1	RES1	0.000	
28	 C43	30.888	23.476	58.568	C.3	1	RES1	0.000	
29	 C44	29.979	24.247	57.561	C.3	1	RES1	0.000	
30	 C45	29.048	23.191	57.046	C.3	1	RES1	0.000	
31	 C46	28.743	22.310	58.260	C.3	1	RES1	0.000	
32	 C47	30.079	22.250	59.014	C.3	1	RES1	0.000	
33	 C48	32.021	25.565	59.289	C.2	1	RES1	0.000	
@<TRIPOS>BOND
1 1 4 1
2 2 12 ar
3 2 13 ar
4 3 4 2
5 4 6 1
6 5 13 1
7 5 14 1
8 6 8 ar
9 6 33 ar
10 7 25 1
11 8 10 1
12 8 11 ar
13 11 12 ar
14 14 15 ar
15 14 16 ar
16 16 18 ar
17 13 17 ar
18 17 27 ar
19 18 21 ar
20 19 27 ar
21 19 28 1
22 19 33 ar
23 20 33 2
24 7 21 1
25 21 26 ar
26 7 22 1
27 22 23 1
28 9 23 1
29 9 24 1
30 24 25 1
31 15 26 ar
32 11 27 ar
33 28 29 1
34 28 32 1
35 29 30 1
36 30 31 1
37 31 32 1
@<TRIPOS>SUBSTRUCTURE
1	RES1	1	GROUP	1 ****	RES
