# created with PyMOL 2.5.2
@<TRIPOS>MOLECULE
CDK6_2EUF_TargetProtein
33 37 1                 
SMALL
USER_CHARGES
@<TRIPOS>ATOM
1	  C1	34.359	27.660	59.314	C.3	1	RES1	0.000	
2	  N1	31.643	22.765	63.605	N.2	1	RES1	0.000	
3	  O1	32.403	28.680	60.270	O.2	1	RES1	0.000	
4	  C2	33.014	27.657	60.047	C.2	1	RES1	0.000	
5	  N2	30.333	20.880	62.875	N.pl3	1	RES1	0.000	
6	  C3	32.467	26.343	60.420	C.2	1	RES1	0.000	
7	  N3	27.707	16.834	59.901	N.pl3	1	RES1	0.000	
8	  C4	32.691	25.835	61.663	C.2	1	RES1	0.000	
9	  N4	26.640	14.699	58.226	N.3	1	RES1	0.000	
10	  C5	33.527	26.520	62.695	C.3	1	RES1	0.000	
11	  C6	32.073	24.535	62.022	C.2	1	RES1	0.000	
12	  C7	32.165	23.953	63.257	C.2	1	RES1	0.000	
13	  C8	30.932	22.119	62.634	C.2	1	RES1	0.000	
14	  C9	29.668	19.922	62.078	C.2	1	RES1	0.000	
15	  N9	29.594	18.695	62.594	N.2	1	RES1	0.000	
16	 C10	29.119	20.213	60.806	C.2	1	RES1	0.000	
17	 N10	30.783	22.605	61.386	N.2	1	RES1	0.000	
18	 C11	28.491	19.203	60.105	C.2	1	RES1	0.000	
19	 N11	31.159	24.311	59.760	N.2	1	RES1	0.000	
20	 C12	28.360	17.907	60.628	C.2	1	RES1	0.000	
21	 O12	31.459	26.080	58.316	O.2	1	RES1	0.000	
22	 C13	27.024	17.139	58.634	C.3	1	RES1	0.000	
23	 C14	26.037	16.037	58.241	C.3	1	RES1	0.000	
24	 C40	27.186	14.412	59.568	C.3	1	RES1	0.000	
25	 C41	28.214	15.455	60.043	C.3	1	RES1	0.000	
26	 C42	28.956	17.712	61.867	C.2	1	RES1	0.000	
27	 C43	31.353	23.790	61.072	C.2	1	RES1	0.000	
28	 C44	30.399	23.496	58.799	C.3	1	RES1	0.000	
29	 C45	31.249	22.811	57.680	C.3	1	RES1	0.000	
30	 C46	30.667	23.282	56.381	C.3	1	RES1	0.000	
31	 C47	29.249	23.634	56.694	C.3	1	RES1	0.000	
32	 C48	29.351	24.308	58.040	C.3	1	RES1	0.000	
33	 C49	31.631	25.570	59.403	C.2	1	RES1	0.000	
@<TRIPOS>BOND
1 1 4 1
2 2 12 ar
3 2 13 ar
4 3 4 2
5 4 6 1
6 5 13 1
7 5 14 1
8 6 8 ar
9 6 33 ar
10 7 25 1
11 8 10 1
12 8 11 ar
13 9 24 1
14 11 12 ar
15 14 15 ar
16 14 16 ar
17 16 18 ar
18 13 17 ar
19 17 27 ar
20 18 20 ar
21 19 27 ar
22 19 28 1
23 19 33 ar
24 7 20 1
25 20 26 ar
26 21 33 2
27 7 22 1
28 22 23 1
29 9 23 1
30 24 25 1
31 15 26 ar
32 11 27 ar
33 28 29 1
34 28 32 1
35 29 30 1
36 30 31 1
37 31 32 1
@<TRIPOS>SUBSTRUCTURE
1	RES1	1	GROUP	1 ****	RES
