# created with PyMOL 2.5.2
@<TRIPOS>MOLECULE
BTK_5P9J_TargetProtein
33 37 1                 
SMALL
USER_CHARGES
@<TRIPOS>ATOM
1	  C1	18.074	5.065	1.633	C.2	1	RES1	0.000	
2	  N1	17.047	4.585	2.461	N.pl3	1	RES1	0.000	
3	  O1	17.494	5.808	8.537	O.3	1	RES1	0.000	
4	  C2	18.951	5.265	-0.496	C.2	1	RES1	0.000	
5	  N2	17.960	4.848	0.311	N.2	1	RES1	0.000	
6	  O2	22.841	9.667	-1.863	O.2	1	RES1	0.000	
7	  C3	20.155	6.095	1.171	C.2	1	RES1	0.000	
8	  N3	20.081	5.871	-0.151	N.2	1	RES1	0.000	
9	  C4	19.223	5.736	2.115	C.2	1	RES1	0.000	
10	  N4	20.955	6.738	3.206	N.2	1	RES1	0.000	
11	  C5	19.757	6.202	3.352	C.2	1	RES1	0.000	
12	  N5	21.175	6.705	1.880	N.2	1	RES1	0.000	
13	  C6	19.162	6.112	4.676	C.2	1	RES1	0.000	
14	  N6	23.528	9.196	0.310	N.pl3	1	RES1	0.000	
15	  C7	18.806	4.886	5.216	C.2	1	RES1	0.000	
16	  C8	18.266	4.827	6.535	C.2	1	RES1	0.000	
17	  C9	18.032	5.972	7.239	C.2	1	RES1	0.000	
18	 C10	16.536	6.766	8.937	C.2	1	RES1	0.000	
19	 C11	15.489	7.168	8.067	C.2	1	RES1	0.000	
20	 C12	14.568	8.093	8.543	C.2	1	RES1	0.000	
21	 C13	14.647	8.578	9.863	C.2	1	RES1	0.000	
22	 C14	15.643	8.132	10.706	C.2	1	RES1	0.000	
23	 C15	16.618	7.198	10.248	C.2	1	RES1	0.000	
24	 C16	18.414	7.206	6.728	C.2	1	RES1	0.000	
25	 C17	18.977	7.274	5.453	C.2	1	RES1	0.000	
26	 C18	22.441	7.222	1.328	C.3	1	RES1	0.000	
27	 C19	23.592	7.115	2.289	C.3	1	RES1	0.000	
28	 C20	24.888	7.660	1.706	C.3	1	RES1	0.000	
29	 C21	24.675	9.104	1.211	C.3	1	RES1	0.000	
30	 C22	23.681	9.808	-0.955	C.2	1	RES1	0.000	
31	 C23	24.937	10.608	-1.197	C.3	1	RES1	0.000	
32	 C24	24.917	11.970	-0.526	C.3	1	RES1	0.000	
33	 C41	22.253	8.677	0.819	C.3	1	RES1	0.000	
@<TRIPOS>BOND
1 1 2 1
2 1 5 ar
3 1 9 ar
4 3 17 1
5 3 18 1
6 4 8 ar
7 4 5 ar
8 6 30 2
9 7 8 ar
10 7 9 ar
11 7 12 ar
12 9 11 ar
13 10 11 ar
14 10 12 ar
15 11 13 1
16 13 15 ar
17 15 16 ar
18 16 17 ar
19 18 19 ar
20 18 23 ar
21 19 20 ar
22 20 21 ar
23 21 22 ar
24 22 23 ar
25 17 24 ar
26 24 25 ar
27 13 25 ar
28 12 26 1
29 26 27 1
30 26 33 1
31 27 28 1
32 28 29 1
33 14 29 1
34 14 30 1
35 30 31 1
36 31 32 1
37 14 33 1
@<TRIPOS>SUBSTRUCTURE
1	RES1	1	GROUP	1 ****	RES
