# created with PyMOL 2.5.2
@<TRIPOS>MOLECULE
BTK_5P9J_TargetProtein
33 37 1                 
SMALL
USER_CHARGES
@<TRIPOS>ATOM
1	  C1	18.079	5.036	1.670	C.2	1	RES1	0.000	
2	  N1	17.035	4.610	2.500	N.pl3	1	RES1	0.000	
3	  O1	17.485	5.815	8.519	O.3	1	RES1	0.000	
4	  C2	18.911	5.259	-0.487	C.2	1	RES1	0.000	
5	  N2	17.951	4.854	0.347	N.2	1	RES1	0.000	
6	  O2	22.851	9.767	-1.878	O.2	1	RES1	0.000	
7	  C3	20.158	6.078	1.185	C.2	1	RES1	0.000	
8	  N3	20.072	5.866	-0.145	N.2	1	RES1	0.000	
9	  C4	19.223	5.698	2.134	C.2	1	RES1	0.000	
10	  N4	20.981	6.735	3.209	N.2	1	RES1	0.000	
11	  C5	19.778	6.158	3.384	C.2	1	RES1	0.000	
12	  N5	21.185	6.670	1.861	N.2	1	RES1	0.000	
13	  C6	19.198	6.104	4.700	C.2	1	RES1	0.000	
14	  N6	23.493	9.179	0.287	N.pl3	1	RES1	0.000	
15	  C7	18.821	4.853	5.234	C.2	1	RES1	0.000	
16	  C8	18.259	4.805	6.515	C.2	1	RES1	0.000	
17	  C9	18.016	5.956	7.242	C.2	1	RES1	0.000	
18	 C10	16.537	6.766	8.923	C.2	1	RES1	0.000	
19	 C11	15.502	7.186	8.062	C.2	1	RES1	0.000	
20	 C12	14.572	8.119	8.506	C.2	1	RES1	0.000	
21	 C13	14.646	8.609	9.805	C.2	1	RES1	0.000	
22	 C14	15.657	8.162	10.668	C.2	1	RES1	0.000	
23	 C15	16.609	7.252	10.206	C.2	1	RES1	0.000	
24	 C16	18.445	7.179	6.733	C.2	1	RES1	0.000	
25	 C17	19.012	7.262	5.473	C.2	1	RES1	0.000	
26	 C18	22.431	7.210	1.276	C.3	1	RES1	0.000	
27	 C19	23.591	7.067	2.247	C.3	1	RES1	0.000	
28	 C20	24.876	7.658	1.660	C.3	1	RES1	0.000	
29	 C21	24.676	9.109	1.184	C.3	1	RES1	0.000	
30	 C22	23.664	9.837	-0.959	C.2	1	RES1	0.000	
31	 C23	24.935	10.661	-1.122	C.3	1	RES1	0.000	
32	 C24	24.885	11.983	-0.407	C.3	1	RES1	0.000	
33	 C41	22.250	8.651	0.824	C.3	1	RES1	0.000	
@<TRIPOS>BOND
1 1 2 1
2 1 5 ar
3 1 9 ar
4 3 17 1
5 3 18 1
6 4 8 ar
7 4 5 ar
8 6 30 2
9 7 8 ar
10 7 9 ar
11 7 12 ar
12 9 11 ar
13 10 11 ar
14 10 12 ar
15 11 13 1
16 13 15 ar
17 15 16 ar
18 16 17 ar
19 18 19 ar
20 18 23 ar
21 19 20 ar
22 20 21 ar
23 21 22 ar
24 22 23 ar
25 17 24 ar
26 24 25 ar
27 13 25 ar
28 12 26 1
29 26 27 1
30 26 33 1
31 27 28 1
32 28 29 1
33 14 29 1
34 14 30 1
35 30 31 1
36 31 32 1
37 14 33 1
@<TRIPOS>SUBSTRUCTURE
1	RES1	1	GROUP	1 ****	RES
