# created with PyMOL 2.5.2
@<TRIPOS>MOLECULE
BTK_5P9J_TargetProtein
33 37 1                 
SMALL
USER_CHARGES
@<TRIPOS>ATOM
1	  C1	18.073	5.149	1.632	C.2	1	RES1	0.000	
2	  N1	16.967	4.783	2.394	N.pl3	1	RES1	0.000	
3	  O1	17.477	5.736	8.543	O.3	1	RES1	0.000	
4	  C2	19.016	5.255	-0.493	C.2	1	RES1	0.000	
5	  N2	17.993	4.890	0.294	N.2	1	RES1	0.000	
6	  O2	22.686	9.611	-1.707	O.3	1	RES1	0.000	
7	  C3	20.185	6.088	1.187	C.2	1	RES1	0.000	
8	  N3	20.163	5.863	-0.137	N.2	1	RES1	0.000	
9	  C4	19.221	5.743	2.121	C.2	1	RES1	0.000	
10	  N4	20.928	6.781	3.240	N.2	1	RES1	0.000	
11	  C5	19.733	6.201	3.376	C.2	1	RES1	0.000	
12	  N5	21.184	6.709	1.912	N.2	1	RES1	0.000	
13	  C6	19.151	6.054	4.696	C.2	1	RES1	0.000	
14	  N6	23.544	9.225	0.382	N.3	1	RES1	0.000	
15	  C7	18.967	7.185	5.502	C.2	1	RES1	0.000	
16	  C8	18.400	7.055	6.772	C.2	1	RES1	0.000	
17	  C9	17.997	5.819	7.257	C.2	1	RES1	0.000	
18	 C10	16.533	6.709	8.899	C.2	1	RES1	0.000	
19	 C11	15.492	7.141	8.041	C.2	1	RES1	0.000	
20	 C12	14.635	8.118	8.464	C.2	1	RES1	0.000	
21	 C13	14.781	8.704	9.723	C.2	1	RES1	0.000	
22	 C14	15.817	8.313	10.569	C.2	1	RES1	0.000	
23	 C15	16.710	7.318	10.140	C.2	1	RES1	0.000	
24	 C16	18.218	4.661	6.461	C.2	1	RES1	0.000	
25	 C17	18.789	4.793	5.187	C.2	1	RES1	0.000	
26	 C18	22.459	7.240	1.381	C.3	1	RES1	0.000	
27	 C19	23.597	7.139	2.368	C.3	1	RES1	0.000	
28	 C20	24.880	7.718	1.788	C.3	1	RES1	0.000	
29	 C21	24.697	9.142	1.313	C.3	1	RES1	0.000	
30	 C22	23.601	9.774	-0.904	C.3	1	RES1	0.000	
31	 C23	24.824	10.586	-1.273	C.3	1	RES1	0.000	
32	 C24	24.803	11.958	-0.655	C.3	1	RES1	0.000	
33	 C42	22.273	8.697	0.886	C.3	1	RES1	0.000	
@<TRIPOS>BOND
1 1 2 1
2 1 5 ar
3 1 9 ar
4 3 17 1
5 3 18 1
6 4 8 ar
7 4 5 ar
8 6 30 1
9 7 8 ar
10 7 9 ar
11 7 12 ar
12 9 11 ar
13 10 11 ar
14 10 12 ar
15 11 13 1
16 13 15 ar
17 15 16 ar
18 16 17 ar
19 18 19 ar
20 18 23 ar
21 19 20 ar
22 20 21 ar
23 21 22 ar
24 22 23 ar
25 17 24 ar
26 24 25 ar
27 13 25 ar
28 12 26 1
29 26 27 1
30 26 33 1
31 27 28 1
32 28 29 1
33 14 29 1
34 14 30 1
35 30 31 1
36 31 32 1
37 14 33 1
@<TRIPOS>SUBSTRUCTURE
1	RES1	1	GROUP	1 ****	RES
