# created with PyMOL 2.5.2
@<TRIPOS>MOLECULE
BTK_5P9J_TargetProtein
33 37 1                 
SMALL
USER_CHARGES
@<TRIPOS>ATOM
1	  C1	18.043	5.045	1.696	C.2	1	RES1	0.000	
2	  N1	17.030	4.551	2.521	N.pl3	1	RES1	0.000	
3	  O1	17.533	5.802	8.574	O.3	1	RES1	0.000	
4	  C2	18.875	5.277	-0.477	C.2	1	RES1	0.000	
5	  N2	17.896	4.870	0.354	N.2	1	RES1	0.000	
6	  O2	22.727	9.881	-1.734	O.3	1	RES1	0.000	
7	  C3	20.139	6.078	1.207	C.2	1	RES1	0.000	
8	  N3	20.025	5.904	-0.117	N.2	1	RES1	0.000	
9	  C4	19.216	5.720	2.127	C.2	1	RES1	0.000	
10	  N4	20.996	6.663	3.205	N.2	1	RES1	0.000	
11	  C5	19.755	6.114	3.384	C.2	1	RES1	0.000	
12	  N5	21.182	6.637	1.879	N.2	1	RES1	0.000	
13	  C6	19.199	6.023	4.703	C.2	1	RES1	0.000	
14	  N6	23.482	9.222	0.353	N.3	1	RES1	0.000	
15	  C7	18.862	4.756	5.258	C.2	1	RES1	0.000	
16	  C8	18.313	4.664	6.533	C.2	1	RES1	0.000	
17	  C9	18.098	5.822	7.301	C.2	1	RES1	0.000	
18	 C10	16.605	6.811	8.858	C.2	1	RES1	0.000	
19	 C11	15.604	7.210	7.954	C.2	1	RES1	0.000	
20	 C12	14.669	8.189	8.295	C.2	1	RES1	0.000	
21	 C13	14.732	8.749	9.580	C.2	1	RES1	0.000	
22	 C14	15.716	8.356	10.485	C.2	1	RES1	0.000	
23	 C15	16.640	7.367	10.145	C.2	1	RES1	0.000	
24	 C16	18.448	7.051	6.735	C.2	1	RES1	0.000	
25	 C17	18.962	7.163	5.486	C.2	1	RES1	0.000	
26	 C18	22.417	7.180	1.282	C.3	1	RES1	0.000	
27	 C19	23.595	7.005	2.233	C.3	1	RES1	0.000	
28	 C20	24.862	7.634	1.644	C.3	1	RES1	0.000	
29	 C21	24.644	9.080	1.237	C.3	1	RES1	0.000	
30	 C22	23.604	9.916	-0.866	C.3	1	RES1	0.000	
31	 C23	24.852	10.731	-1.068	C.3	1	RES1	0.000	
32	 C24	24.847	12.033	-0.313	C.3	1	RES1	0.000	
33	 C42	22.217	8.652	0.898	C.3	1	RES1	0.000	
@<TRIPOS>BOND
1 1 2 1
2 1 5 ar
3 1 9 ar
4 3 17 1
5 3 18 1
6 4 8 ar
7 4 5 ar
8 6 30 1
9 7 8 ar
10 7 9 ar
11 7 12 ar
12 9 11 ar
13 10 11 ar
14 10 12 ar
15 11 13 1
16 13 15 ar
17 15 16 ar
18 16 17 ar
19 18 19 ar
20 18 23 ar
21 19 20 ar
22 20 21 ar
23 21 22 ar
24 22 23 ar
25 17 24 ar
26 24 25 ar
27 13 25 ar
28 12 26 1
29 26 27 1
30 26 33 1
31 27 28 1
32 28 29 1
33 14 29 1
34 14 30 1
35 30 31 1
36 31 32 1
37 14 33 1
@<TRIPOS>SUBSTRUCTURE
1	RES1	1	GROUP	1 ****	RES
