# created with PyMOL 2.5.2
@<TRIPOS>MOLECULE
ALK_4MKC_TargetProtein
38 41 1                 
SMALL
USER_CHARGES
@<TRIPOS>ATOM
1	 CL1	-21.158	14.992	-10.671	Cl	1	RES1	0.000	
2	  C1	-19.952	6.995	-7.184	C.3	1	RES1	0.000	
3	  N1	-23.555	9.925	-8.953	N.pl3	1	RES1	0.000	
4	  O1	-18.075	14.836	-9.152	O.2	1	RES1	0.000	
5	  S1	-17.056	13.971	-8.601	S.O2	1	RES1	0.000	
6	  C2	-21.422	7.344	-7.246	C.2	1	RES1	0.000	
7	  N2	-23.550	11.818	-10.310	N.2	1	RES1	0.000	
8	  O2	-15.897	14.541	-7.958	O.2	1	RES1	0.000	
9	  C3	-21.824	8.396	-8.038	C.2	1	RES1	0.000	
10	  N3	-20.059	13.203	-8.485	N.pl3	1	RES1	0.000	
11	  O3	-25.444	8.517	-7.674	O.3	1	RES1	0.000	
12	  C4	-23.147	8.817	-8.166	C.2	1	RES1	0.000	
13	  N4	-21.798	11.541	-8.729	N.2	1	RES1	0.000	
14	  C5	-22.933	11.122	-9.311	C.2	1	RES1	0.000	
15	  N5	-22.678	2.851	-4.372	N.3	1	RES1	0.000	
16	  C6	-22.977	13.001	-10.693	C.2	1	RES1	0.000	
17	  C7	-21.813	13.485	-10.111	C.2	1	RES1	0.000	
18	  C8	-21.243	12.733	-9.100	C.2	1	RES1	0.000	
19	  C9	-19.252	12.673	-7.437	C.2	1	RES1	0.000	
20	 C10	-19.783	11.901	-6.390	C.2	1	RES1	0.000	
21	 C11	-19.017	11.365	-5.368	C.2	1	RES1	0.000	
22	 C12	-17.626	11.570	-5.366	C.2	1	RES1	0.000	
23	 C13	-17.061	12.339	-6.369	C.2	1	RES1	0.000	
24	 C14	-17.863	12.906	-7.363	C.2	1	RES1	0.000	
25	 C15	-16.516	12.823	-9.914	C.3	1	RES1	0.000	
26	 C16	-17.713	12.028	-10.435	C.3	1	RES1	0.000	
27	 C17	-15.397	11.904	-9.472	C.3	1	RES1	0.000	
28	 C18	-24.113	8.064	-7.497	C.2	1	RES1	0.000	
29	 C19	-26.543	7.748	-7.097	C.3	1	RES1	0.000	
30	 C20	-26.745	6.541	-8.010	C.3	1	RES1	0.000	
31	 C21	-27.802	8.614	-7.072	C.3	1	RES1	0.000	
32	 C22	-23.754	6.982	-6.699	C.2	1	RES1	0.000	
33	 C23	-22.406	6.600	-6.556	C.2	1	RES1	0.000	
34	 C24	-22.057	5.396	-5.657	C.3	1	RES1	0.000	
35	 C25	-22.053	4.089	-6.418	C.3	1	RES1	0.000	
36	 C26	-21.732	2.921	-5.483	C.3	1	RES1	0.000	
37	 C44	-22.622	4.066	-3.596	C.3	1	RES1	0.000	
38	 C45	-22.978	5.298	-4.443	C.3	1	RES1	0.000	
@<TRIPOS>BOND
1 1 17 1
2 2 6 1
3 3 12 1
4 3 14 1
5 4 5 2
6 5 8 2
7 5 24 1
8 5 25 1
9 6 9 ar
10 6 33 ar
11 7 14 ar
12 7 16 ar
13 9 12 ar
14 10 18 1
15 10 19 1
16 13 14 ar
17 13 18 ar
18 16 17 ar
19 17 18 ar
20 19 20 ar
21 20 21 ar
22 21 22 ar
23 22 23 ar
24 23 24 ar
25 19 24 ar
26 25 26 1
27 25 27 1
28 11 28 1
29 12 28 ar
30 28 32 ar
31 11 29 1
32 29 30 1
33 29 31 1
34 32 33 ar
35 33 34 1
36 34 35 1
37 34 38 1
38 35 36 1
39 15 36 1
40 15 37 1
41 37 38 1
@<TRIPOS>SUBSTRUCTURE
1	RES1	1	GROUP	1 ****	RES
