# created with PyMOL 2.5.2
@<TRIPOS>MOLECULE
BRD4_6C7R_TargetProtein
35 40 1                 
SMALL
USER_CHARGES
@<TRIPOS>ATOM
1	  C1	-4.029	8.347	25.453	C.3	1	RES1	0.000	
2	  N1	-1.837	8.430	24.182	N.2	1	RES1	0.000	
3	  O1	4.917	6.891	26.740	O.2	1	RES1	0.000	
4	  C2	-2.541	8.043	25.411	C.3	1	RES1	0.000	
5	  N2	-2.513	8.971	23.154	N.2	1	RES1	0.000	
6	  C3	-1.601	9.209	22.231	C.2	1	RES1	0.000	
7	  N3	0.365	7.743	24.869	N.pl3	1	RES1	0.000	
8	  C4	-1.936	9.809	20.883	C.3	1	RES1	0.000	
9	  N4	2.552	6.834	25.347	N.2	1	RES1	0.000	
10	  C5	-3.001	10.903	20.765	C.3	1	RES1	0.000	
11	  C6	-3.331	9.533	20.288	C.3	1	RES1	0.000	
12	  C7	-0.315	8.771	22.663	C.2	1	RES1	0.000	
13	  C8	-0.487	8.281	23.932	C.2	1	RES1	0.000	
14	  O8	-3.052	5.440	20.959	O.3	1	RES1	0.000	
15	  C9	1.384	6.798	24.645	C.2	1	RES1	0.000	
16	  N9	3.453	4.874	24.248	N.2	1	RES1	0.000	
17	  O9	-2.425	2.214	17.795	O.2	1	RES1	0.000	
18	 C10	3.485	5.898	25.129	C.2	1	RES1	0.000	
19	 N10	-3.509	1.930	18.648	N.2	1	RES1	0.000	
20	 C11	4.736	6.007	25.929	C.2	1	RES1	0.000	
21	 N11	1.980	3.925	22.650	N.2	1	RES1	0.000	
22	 C31	2.300	4.862	23.585	C.2	1	RES1	0.000	
23	 C32	1.235	5.746	23.704	C.2	1	RES1	0.000	
24	 C33	0.222	5.271	22.762	C.2	1	RES1	0.000	
25	 C34	-1.043	5.722	22.410	C.2	1	RES1	0.000	
26	 C35	-1.775	5.026	21.402	C.2	1	RES1	0.000	
27	 C36	-3.714	6.467	21.682	C.3	1	RES1	0.000	
28	 C37	-1.209	3.910	20.790	C.2	1	RES1	0.000	
29	 C38	-1.929	3.162	19.782	C.2	1	RES1	0.000	
30	 C39	-1.496	2.940	18.462	C.2	1	RES1	0.000	
31	 C40	-0.311	3.330	17.696	C.3	1	RES1	0.000	
32	 C41	-3.166	2.481	19.818	C.2	1	RES1	0.000	
33	 C42	-4.110	2.413	20.975	C.3	1	RES1	0.000	
34	 C43	0.042	3.466	21.145	C.2	1	RES1	0.000	
35	 C44	0.742	4.180	22.128	C.2	1	RES1	0.000	
@<TRIPOS>BOND
1 1 4 1
2 2 4 1
3 2 5 ar
4 2 13 ar
5 3 20 2
6 5 6 ar
7 6 8 1
8 6 12 ar
9 7 13 1
10 7 15 1
11 8 10 1
12 8 11 1
13 9 15 ar
14 10 11 1
15 12 13 ar
16 9 18 ar
17 16 18 ar
18 18 20 1
19 17 19 ar
20 19 32 ar
21 21 22 ar
22 21 35 ar
23 16 22 ar
24 22 23 ar
25 15 23 ar
26 23 24 ar
27 24 25 ar
28 24 35 ar
29 25 26 ar
30 14 26 1
31 26 28 ar
32 14 27 1
33 28 29 1
34 28 34 ar
35 29 30 ar
36 29 32 ar
37 17 30 ar
38 30 31 1
39 32 33 1
40 34 35 ar
@<TRIPOS>SUBSTRUCTURE
1	RES1	1	GROUP	1 ****	RES
