# created with PyMOL 2.5.2
@<TRIPOS>MOLECULE
BTK_5P9J_TargetProtein
33 37 1                 
SMALL
USER_CHARGES
@<TRIPOS>ATOM
1	  C1	18.059	5.152	1.622	C.2	1	RES1	0.000	
2	  N1	16.955	4.794	2.413	N.pl3	1	RES1	0.000	
3	  O1	17.497	5.760	8.553	O.3	1	RES1	0.000	
4	  C2	19.011	5.237	-0.499	C.2	1	RES1	0.000	
5	  N2	17.986	4.901	0.301	N.2	1	RES1	0.000	
6	  O2	22.735	9.592	-1.736	O.2	1	RES1	0.000	
7	  C3	20.195	6.063	1.172	C.2	1	RES1	0.000	
8	  N3	20.146	5.871	-0.138	N.2	1	RES1	0.000	
9	  C4	19.206	5.745	2.110	C.2	1	RES1	0.000	
10	  N4	20.959	6.782	3.246	N.2	1	RES1	0.000	
11	  C5	19.736	6.195	3.384	C.2	1	RES1	0.000	
12	  N5	21.182	6.677	1.901	N.2	1	RES1	0.000	
13	  C6	19.138	6.074	4.691	C.2	1	RES1	0.000	
14	  N6	23.528	9.221	0.390	N.pl3	1	RES1	0.000	
15	  C7	18.990	7.210	5.506	C.2	1	RES1	0.000	
16	  C8	18.403	7.070	6.754	C.2	1	RES1	0.000	
17	  C9	18.027	5.835	7.242	C.2	1	RES1	0.000	
18	 C10	16.539	6.724	8.898	C.2	1	RES1	0.000	
19	 C11	15.500	7.122	8.029	C.2	1	RES1	0.000	
20	 C12	14.612	8.094	8.482	C.2	1	RES1	0.000	
21	 C13	14.767	8.678	9.737	C.2	1	RES1	0.000	
22	 C14	15.810	8.287	10.578	C.2	1	RES1	0.000	
23	 C15	16.685	7.322	10.160	C.2	1	RES1	0.000	
24	 C16	18.225	4.688	6.450	C.2	1	RES1	0.000	
25	 C17	18.778	4.808	5.207	C.2	1	RES1	0.000	
26	 C18	22.439	7.233	1.354	C.3	1	RES1	0.000	
27	 C19	23.606	7.116	2.355	C.3	1	RES1	0.000	
28	 C20	24.891	7.714	1.795	C.3	1	RES1	0.000	
29	 C21	24.665	9.158	1.320	C.3	1	RES1	0.000	
30	 C22	23.605	9.773	-0.906	C.2	1	RES1	0.000	
31	 C23	24.825	10.591	-1.255	C.3	1	RES1	0.000	
32	 C24	24.809	11.992	-0.643	C.3	1	RES1	0.000	
33	 C43	22.268	8.670	0.886	C.3	1	RES1	0.000	
@<TRIPOS>BOND
1 1 2 1
2 1 5 ar
3 1 9 ar
4 3 17 1
5 3 18 1
6 4 8 ar
7 4 5 ar
8 6 30 2
9 7 8 ar
10 7 9 ar
11 7 12 ar
12 9 11 ar
13 10 11 ar
14 10 12 ar
15 11 13 1
16 13 15 ar
17 15 16 ar
18 16 17 ar
19 18 19 ar
20 18 23 ar
21 19 20 ar
22 20 21 ar
23 21 22 ar
24 22 23 ar
25 17 24 ar
26 24 25 ar
27 13 25 ar
28 12 26 1
29 26 27 1
30 26 33 1
31 27 28 1
32 28 29 1
33 14 29 1
34 14 30 1
35 30 31 1
36 31 32 1
37 14 33 1
@<TRIPOS>SUBSTRUCTURE
1	RES1	1	GROUP	1 ****	RES
