# created with PyMOL 2.5.2
@<TRIPOS>MOLECULE
BTK_5P9J_TargetProtein
33 37 1                 
SMALL
USER_CHARGES
@<TRIPOS>ATOM
1	  C1	18.055	5.030	1.658	C.2	1	RES1	0.000	
2	  N1	17.065	4.542	2.499	N.pl3	1	RES1	0.000	
3	  O1	17.515	5.787	8.551	O.3	1	RES1	0.000	
4	  C2	18.878	5.306	-0.473	C.2	1	RES1	0.000	
5	  N2	17.938	4.856	0.332	N.2	1	RES1	0.000	
6	  O2	22.769	9.759	-1.750	O.3	1	RES1	0.000	
7	  C3	20.130	6.072	1.187	C.2	1	RES1	0.000	
8	  N3	20.046	5.899	-0.139	N.2	1	RES1	0.000	
9	  C4	19.201	5.695	2.145	C.2	1	RES1	0.000	
10	  N4	20.971	6.665	3.240	N.2	1	RES1	0.000	
11	  C5	19.757	6.098	3.394	C.2	1	RES1	0.000	
12	  N5	21.168	6.661	1.895	N.2	1	RES1	0.000	
13	  C6	19.196	6.000	4.724	C.2	1	RES1	0.000	
14	  N6	23.472	9.243	0.373	N.3	1	RES1	0.000	
15	  C7	19.103	7.134	5.544	C.2	1	RES1	0.000	
16	  C8	18.545	7.046	6.823	C.2	1	RES1	0.000	
17	  C9	18.082	5.804	7.283	C.2	1	RES1	0.000	
18	 C10	16.595	6.794	8.882	C.2	1	RES1	0.000	
19	 C11	15.586	7.195	7.944	C.2	1	RES1	0.000	
20	 C12	14.679	8.189	8.315	C.2	1	RES1	0.000	
21	 C13	14.773	8.784	9.590	C.2	1	RES1	0.000	
22	 C14	15.787	8.352	10.505	C.2	1	RES1	0.000	
23	 C15	16.653	7.375	10.129	C.2	1	RES1	0.000	
24	 C16	18.144	4.671	6.448	C.2	1	RES1	0.000	
25	 C17	18.697	4.741	5.182	C.2	1	RES1	0.000	
26	 C18	22.399	7.219	1.326	C.3	1	RES1	0.000	
27	 C19	23.601	7.068	2.302	C.3	1	RES1	0.000	
28	 C20	24.847	7.701	1.692	C.3	1	RES1	0.000	
29	 C21	24.626	9.141	1.259	C.3	1	RES1	0.000	
30	 C22	23.602	9.894	-0.872	C.3	1	RES1	0.000	
31	 C23	24.863	10.715	-1.111	C.3	1	RES1	0.000	
32	 C24	24.836	12.038	-0.402	C.3	1	RES1	0.000	
33	 C44	22.208	8.681	0.880	C.3	1	RES1	0.000	
@<TRIPOS>BOND
1 1 2 1
2 1 5 ar
3 1 9 ar
4 3 17 1
5 3 18 1
6 4 8 ar
7 4 5 ar
8 6 30 1
9 7 8 ar
10 7 9 ar
11 7 12 ar
12 9 11 ar
13 10 11 ar
14 10 12 ar
15 11 13 1
16 13 15 ar
17 15 16 ar
18 16 17 ar
19 18 19 ar
20 18 23 ar
21 19 20 ar
22 20 21 ar
23 21 22 ar
24 22 23 ar
25 17 24 ar
26 24 25 ar
27 13 25 ar
28 12 26 1
29 26 27 1
30 26 33 1
31 27 28 1
32 28 29 1
33 14 29 1
34 14 30 1
35 30 31 1
36 31 32 1
37 14 33 1
@<TRIPOS>SUBSTRUCTURE
1	RES1	1	GROUP	1 ****	RES
