# created with PyMOL 2.5.2
@<TRIPOS>MOLECULE
BTK_5P9J_TargetProtein
33 37 1                 
SMALL
USER_CHARGES
@<TRIPOS>ATOM
1	  C1	18.037	5.196	1.643	C.2	1	RES1	0.000	
2	  N1	16.945	4.837	2.426	N.pl3	1	RES1	0.000	
3	  O1	17.528	5.747	8.565	O.3	1	RES1	0.000	
4	  C2	18.973	5.282	-0.487	C.2	1	RES1	0.000	
5	  N2	17.945	4.922	0.324	N.2	1	RES1	0.000	
6	  O2	22.709	9.592	-1.709	O.2	1	RES1	0.000	
7	  C3	20.155	6.094	1.212	C.2	1	RES1	0.000	
8	  N3	20.134	5.886	-0.126	N.2	1	RES1	0.000	
9	  C4	19.201	5.758	2.128	C.2	1	RES1	0.000	
10	  N4	20.951	6.770	3.234	N.2	1	RES1	0.000	
11	  C5	19.751	6.212	3.380	C.2	1	RES1	0.000	
12	  N5	21.183	6.695	1.902	N.2	1	RES1	0.000	
13	  C6	19.163	6.054	4.729	C.2	1	RES1	0.000	
14	  N6	23.563	9.219	0.377	N.pl3	1	RES1	0.000	
15	  C7	18.850	4.792	5.220	C.2	1	RES1	0.000	
16	  C8	18.325	4.666	6.487	C.2	1	RES1	0.000	
17	  C9	18.039	5.812	7.267	C.2	1	RES1	0.000	
18	 C10	16.550	6.700	8.886	C.2	1	RES1	0.000	
19	 C11	15.505	7.065	8.020	C.2	1	RES1	0.000	
20	 C12	14.600	8.031	8.418	C.2	1	RES1	0.000	
21	 C13	14.739	8.685	9.650	C.2	1	RES1	0.000	
22	 C14	15.768	8.345	10.502	C.2	1	RES1	0.000	
23	 C15	16.722	7.357	10.114	C.2	1	RES1	0.000	
24	 C16	18.406	7.083	6.779	C.2	1	RES1	0.000	
25	 C17	18.946	7.205	5.500	C.2	1	RES1	0.000	
26	 C18	22.440	7.234	1.361	C.3	1	RES1	0.000	
27	 C19	23.598	7.095	2.348	C.3	1	RES1	0.000	
28	 C20	24.884	7.691	1.776	C.3	1	RES1	0.000	
29	 C21	24.670	9.126	1.319	C.3	1	RES1	0.000	
30	 C22	23.585	9.760	-0.912	C.2	1	RES1	0.000	
31	 C23	24.810	10.573	-1.256	C.3	1	RES1	0.000	
32	 C24	24.817	11.980	-0.628	C.3	1	RES1	0.000	
33	 C44	22.288	8.690	0.904	C.3	1	RES1	0.000	
@<TRIPOS>BOND
1 1 2 1
2 1 5 ar
3 1 9 ar
4 3 17 1
5 3 18 1
6 4 8 ar
7 4 5 ar
8 6 30 2
9 7 8 ar
10 7 9 ar
11 7 12 ar
12 9 11 ar
13 10 11 ar
14 10 12 ar
15 11 13 1
16 13 15 ar
17 15 16 ar
18 16 17 ar
19 18 19 ar
20 18 23 ar
21 19 20 ar
22 20 21 ar
23 21 22 ar
24 22 23 ar
25 17 24 ar
26 24 25 ar
27 13 25 ar
28 12 26 1
29 26 27 1
30 26 33 1
31 27 28 1
32 28 29 1
33 14 29 1
34 14 30 1
35 30 31 1
36 31 32 1
37 14 33 1
@<TRIPOS>SUBSTRUCTURE
1	RES1	1	GROUP	1 ****	RES
