# created with PyMOL 2.5.2
@<TRIPOS>MOLECULE
BTK_5P9J_TargetProtein
33 37 1                 
SMALL
USER_CHARGES
@<TRIPOS>ATOM
1	  C1	18.044	5.030	1.669	C.2	1	RES1	0.000	
2	  N1	17.051	4.540	2.494	N.pl3	1	RES1	0.000	
3	  O1	17.470	5.743	8.564	O.3	1	RES1	0.000	
4	  C2	18.914	5.272	-0.467	C.2	1	RES1	0.000	
5	  N2	17.943	4.842	0.344	N.2	1	RES1	0.000	
6	  O2	22.795	9.826	-1.806	O.3	1	RES1	0.000	
7	  C3	20.158	6.070	1.203	C.2	1	RES1	0.000	
8	  N3	20.058	5.901	-0.136	N.2	1	RES1	0.000	
9	  C4	19.212	5.704	2.141	C.2	1	RES1	0.000	
10	  N4	20.955	6.683	3.233	N.2	1	RES1	0.000	
11	  C5	19.757	6.138	3.399	C.2	1	RES1	0.000	
12	  N5	21.172	6.678	1.885	N.2	1	RES1	0.000	
13	  C6	19.167	6.030	4.724	C.2	1	RES1	0.000	
14	  N6	23.458	9.251	0.333	N.3	1	RES1	0.000	
15	  C7	19.032	7.154	5.535	C.2	1	RES1	0.000	
16	  C8	18.457	7.017	6.780	C.2	1	RES1	0.000	
17	  C9	18.019	5.794	7.274	C.2	1	RES1	0.000	
18	 C10	16.543	6.728	8.890	C.2	1	RES1	0.000	
19	 C11	15.558	7.141	8.022	C.2	1	RES1	0.000	
20	 C12	14.674	8.157	8.365	C.2	1	RES1	0.000	
21	 C13	14.819	8.825	9.601	C.2	1	RES1	0.000	
22	 C14	15.853	8.426	10.457	C.2	1	RES1	0.000	
23	 C15	16.714	7.374	10.120	C.2	1	RES1	0.000	
24	 C16	18.176	4.651	6.457	C.2	1	RES1	0.000	
25	 C17	18.753	4.761	5.186	C.2	1	RES1	0.000	
26	 C18	22.396	7.218	1.339	C.3	1	RES1	0.000	
27	 C19	23.570	7.118	2.305	C.3	1	RES1	0.000	
28	 C20	24.839	7.708	1.701	C.3	1	RES1	0.000	
29	 C21	24.611	9.129	1.241	C.3	1	RES1	0.000	
30	 C22	23.621	9.889	-0.913	C.3	1	RES1	0.000	
31	 C23	24.909	10.672	-1.094	C.3	1	RES1	0.000	
32	 C24	24.880	12.006	-0.371	C.3	1	RES1	0.000	
33	 C45	22.205	8.679	0.878	C.3	1	RES1	0.000	
@<TRIPOS>BOND
1 1 2 1
2 1 5 ar
3 1 9 ar
4 3 17 1
5 3 18 1
6 4 8 ar
7 4 5 ar
8 6 30 1
9 7 8 ar
10 7 9 ar
11 7 12 ar
12 9 11 ar
13 10 11 ar
14 10 12 ar
15 11 13 1
16 13 15 ar
17 15 16 ar
18 16 17 ar
19 18 19 ar
20 18 23 ar
21 19 20 ar
22 20 21 ar
23 21 22 ar
24 22 23 ar
25 17 24 ar
26 24 25 ar
27 13 25 ar
28 12 26 1
29 26 27 1
30 26 33 1
31 27 28 1
32 28 29 1
33 14 29 1
34 14 30 1
35 30 31 1
36 31 32 1
37 14 33 1
@<TRIPOS>SUBSTRUCTURE
1	RES1	1	GROUP	1 ****	RES
