# created with PyMOL 2.5.2
@<TRIPOS>MOLECULE
BTK_5P9J_TargetProtein
33 37 1                 
SMALL
USER_CHARGES
@<TRIPOS>ATOM
1	  C1	18.042	5.104	1.668	C.2	1	RES1	0.000	
2	  N1	16.940	4.754	2.482	N.pl3	1	RES1	0.000	
3	  O1	17.545	5.778	8.584	O.3	1	RES1	0.000	
4	  C2	18.958	5.189	-0.471	C.2	1	RES1	0.000	
5	  N2	17.936	4.821	0.344	N.2	1	RES1	0.000	
6	  O2	22.867	9.758	-1.834	O.2	1	RES1	0.000	
7	  C3	20.145	6.059	1.209	C.2	1	RES1	0.000	
8	  N3	20.083	5.804	-0.110	N.2	1	RES1	0.000	
9	  C4	19.182	5.745	2.149	C.2	1	RES1	0.000	
10	  N4	20.932	6.756	3.207	N.2	1	RES1	0.000	
11	  C5	19.725	6.174	3.396	C.2	1	RES1	0.000	
12	  N5	21.143	6.672	1.875	N.2	1	RES1	0.000	
13	  C6	19.159	6.054	4.722	C.2	1	RES1	0.000	
14	  N6	23.488	9.201	0.310	N.pl3	1	RES1	0.000	
15	  C7	18.883	4.783	5.243	C.2	1	RES1	0.000	
16	  C8	18.331	4.668	6.513	C.2	1	RES1	0.000	
17	  C9	18.094	5.805	7.309	C.2	1	RES1	0.000	
18	 C10	16.605	6.781	8.860	C.2	1	RES1	0.000	
19	 C11	15.716	7.292	7.915	C.2	1	RES1	0.000	
20	 C12	14.775	8.243	8.282	C.2	1	RES1	0.000	
21	 C13	14.710	8.698	9.598	C.2	1	RES1	0.000	
22	 C14	15.577	8.169	10.576	C.2	1	RES1	0.000	
23	 C15	16.511	7.229	10.191	C.2	1	RES1	0.000	
24	 C16	18.391	7.062	6.795	C.2	1	RES1	0.000	
25	 C17	18.949	7.190	5.500	C.2	1	RES1	0.000	
26	 C18	22.399	7.234	1.310	C.3	1	RES1	0.000	
27	 C19	23.561	7.113	2.341	C.3	1	RES1	0.000	
28	 C20	24.838	7.729	1.738	C.3	1	RES1	0.000	
29	 C21	24.605	9.129	1.237	C.3	1	RES1	0.000	
30	 C22	23.667	9.827	-0.920	C.2	1	RES1	0.000	
31	 C23	24.931	10.661	-1.096	C.3	1	RES1	0.000	
32	 C24	24.864	12.007	-0.403	C.3	1	RES1	0.000	
33	 C45	22.233	8.666	0.833	C.3	1	RES1	0.000	
@<TRIPOS>BOND
1 1 2 1
2 1 5 ar
3 1 9 ar
4 3 17 1
5 3 18 1
6 4 8 ar
7 4 5 ar
8 6 30 2
9 7 8 ar
10 7 9 ar
11 7 12 ar
12 9 11 ar
13 10 11 ar
14 10 12 ar
15 11 13 1
16 13 15 ar
17 15 16 ar
18 16 17 ar
19 18 19 ar
20 18 23 ar
21 19 20 ar
22 20 21 ar
23 21 22 ar
24 22 23 ar
25 17 24 ar
26 24 25 ar
27 13 25 ar
28 12 26 1
29 26 27 1
30 26 33 1
31 27 28 1
32 28 29 1
33 14 29 1
34 14 30 1
35 30 31 1
36 31 32 1
37 14 33 1
@<TRIPOS>SUBSTRUCTURE
1	RES1	1	GROUP	1 ****	RES
