# created with PyMOL 2.5.2
@<TRIPOS>MOLECULE
BTK_5P9J_TargetProtein
33 37 1                 
SMALL
USER_CHARGES
@<TRIPOS>ATOM
1	  C1	18.090	5.078	1.627	C.2	1	RES1	0.000	
2	  N1	17.063	4.619	2.440	N.pl3	1	RES1	0.000	
3	  O1	17.446	5.802	8.488	O.3	1	RES1	0.000	
4	  C2	19.001	5.262	-0.518	C.2	1	RES1	0.000	
5	  N2	17.991	4.861	0.317	N.2	1	RES1	0.000	
6	  O2	22.685	9.633	-1.742	O.3	1	RES1	0.000	
7	  C3	20.195	6.078	1.182	C.2	1	RES1	0.000	
8	  N3	20.126	5.896	-0.162	N.2	1	RES1	0.000	
9	  C4	19.242	5.734	2.118	C.2	1	RES1	0.000	
10	  N4	20.985	6.740	3.220	N.2	1	RES1	0.000	
11	  C5	19.773	6.186	3.381	C.2	1	RES1	0.000	
12	  N5	21.214	6.669	1.860	N.2	1	RES1	0.000	
13	  C6	19.165	6.110	4.686	C.2	1	RES1	0.000	
14	  N6	23.574	9.209	0.364	N.3	1	RES1	0.000	
15	  C7	19.047	7.258	5.466	C.2	1	RES1	0.000	
16	  C8	18.469	7.183	6.756	C.2	1	RES1	0.000	
17	  C9	18.004	5.931	7.231	C.2	1	RES1	0.000	
18	 C10	16.513	6.761	8.903	C.2	1	RES1	0.000	
19	 C11	15.489	7.206	8.059	C.2	1	RES1	0.000	
20	 C12	14.583	8.169	8.561	C.2	1	RES1	0.000	
21	 C13	14.697	8.632	9.860	C.2	1	RES1	0.000	
22	 C14	15.704	8.146	10.679	C.2	1	RES1	0.000	
23	 C15	16.607	7.202	10.228	C.2	1	RES1	0.000	
24	 C16	18.165	4.779	6.441	C.2	1	RES1	0.000	
25	 C17	18.730	4.872	5.171	C.2	1	RES1	0.000	
26	 C18	22.468	7.223	1.314	C.3	1	RES1	0.000	
27	 C19	23.629	7.071	2.312	C.3	1	RES1	0.000	
28	 C20	24.920	7.668	1.718	C.3	1	RES1	0.000	
29	 C21	24.685	9.107	1.288	C.3	1	RES1	0.000	
30	 C22	23.593	9.776	-0.912	C.3	1	RES1	0.000	
31	 C23	24.821	10.609	-1.256	C.3	1	RES1	0.000	
32	 C24	24.811	12.001	-0.596	C.3	1	RES1	0.000	
33	 C46	22.299	8.682	0.870	C.3	1	RES1	0.000	
@<TRIPOS>BOND
1 1 2 1
2 1 5 ar
3 1 9 ar
4 3 17 1
5 3 18 1
6 4 8 ar
7 4 5 ar
8 6 30 1
9 7 8 ar
10 7 9 ar
11 7 12 ar
12 9 11 ar
13 10 11 ar
14 10 12 ar
15 11 13 1
16 13 15 ar
17 15 16 ar
18 16 17 ar
19 18 19 ar
20 18 23 ar
21 19 20 ar
22 20 21 ar
23 21 22 ar
24 22 23 ar
25 17 24 ar
26 24 25 ar
27 13 25 ar
28 12 26 1
29 26 27 1
30 26 33 1
31 27 28 1
32 28 29 1
33 14 29 1
34 14 30 1
35 30 31 1
36 31 32 1
37 14 33 1
@<TRIPOS>SUBSTRUCTURE
1	RES1	1	GROUP	1 ****	RES
