# created with PyMOL 2.5.2
@<TRIPOS>MOLECULE
BTK_5P9J_TargetProtein
33 37 1                 
SMALL
USER_CHARGES
@<TRIPOS>ATOM
1	  C1	18.055	5.155	1.641	C.2	1	RES1	0.000	
2	  N1	16.948	4.817	2.428	N.pl3	1	RES1	0.000	
3	  O1	17.500	5.766	8.555	O.3	1	RES1	0.000	
4	  C2	19.009	5.253	-0.486	C.2	1	RES1	0.000	
5	  N2	17.969	4.891	0.303	N.2	1	RES1	0.000	
6	  O2	22.722	9.575	-1.763	O.2	1	RES1	0.000	
7	  C3	20.168	6.098	1.193	C.2	1	RES1	0.000	
8	  N3	20.138	5.873	-0.134	N.2	1	RES1	0.000	
9	  C4	19.217	5.781	2.098	C.2	1	RES1	0.000	
10	  N4	20.949	6.791	3.228	N.2	1	RES1	0.000	
11	  C5	19.730	6.217	3.369	C.2	1	RES1	0.000	
12	  N5	21.190	6.702	1.888	N.2	1	RES1	0.000	
13	  C6	19.148	6.070	4.707	C.2	1	RES1	0.000	
14	  N6	23.560	9.205	0.359	N.pl3	1	RES1	0.000	
15	  C7	18.839	4.814	5.211	C.2	1	RES1	0.000	
16	  C8	18.300	4.698	6.491	C.2	1	RES1	0.000	
17	  C9	18.046	5.848	7.244	C.2	1	RES1	0.000	
18	 C10	16.539	6.699	8.893	C.2	1	RES1	0.000	
19	 C11	15.502	7.106	8.062	C.2	1	RES1	0.000	
20	 C12	14.595	8.073	8.478	C.2	1	RES1	0.000	
21	 C13	14.734	8.657	9.724	C.2	1	RES1	0.000	
22	 C14	15.796	8.274	10.565	C.2	1	RES1	0.000	
23	 C15	16.684	7.317	10.143	C.2	1	RES1	0.000	
24	 C16	18.363	7.067	6.762	C.2	1	RES1	0.000	
25	 C17	18.923	7.204	5.478	C.2	1	RES1	0.000	
26	 C18	22.440	7.258	1.374	C.3	1	RES1	0.000	
27	 C19	23.589	7.115	2.367	C.3	1	RES1	0.000	
28	 C20	24.871	7.723	1.795	C.3	1	RES1	0.000	
29	 C21	24.685	9.120	1.324	C.3	1	RES1	0.000	
30	 C22	23.595	9.736	-0.917	C.2	1	RES1	0.000	
31	 C23	24.849	10.574	-1.264	C.3	1	RES1	0.000	
32	 C24	24.839	11.979	-0.639	C.3	1	RES1	0.000	
33	 C46	22.295	8.699	0.878	C.3	1	RES1	0.000	
@<TRIPOS>BOND
1 1 2 1
2 1 5 ar
3 1 9 ar
4 3 17 1
5 3 18 1
6 4 8 ar
7 4 5 ar
8 6 30 2
9 7 8 ar
10 7 9 ar
11 7 12 ar
12 9 11 ar
13 10 11 ar
14 10 12 ar
15 11 13 1
16 13 15 ar
17 15 16 ar
18 16 17 ar
19 18 19 ar
20 18 23 ar
21 19 20 ar
22 20 21 ar
23 21 22 ar
24 22 23 ar
25 17 24 ar
26 24 25 ar
27 13 25 ar
28 12 26 1
29 26 27 1
30 26 33 1
31 27 28 1
32 28 29 1
33 14 29 1
34 14 30 1
35 30 31 1
36 31 32 1
37 14 33 1
@<TRIPOS>SUBSTRUCTURE
1	RES1	1	GROUP	1 ****	RES
