# created with PyMOL 2.5.2
@<TRIPOS>MOLECULE
BTK_5P9J_TargetProtein
33 37 1                 
SMALL
USER_CHARGES
@<TRIPOS>ATOM
1	  C1	18.022	5.119	1.663	C.2	1	RES1	0.000	
2	  N1	16.960	4.757	2.468	N.pl3	1	RES1	0.000	
3	  O1	17.560	5.797	8.582	O.3	1	RES1	0.000	
4	  C2	18.955	5.221	-0.456	C.2	1	RES1	0.000	
5	  N2	17.915	4.835	0.355	N.2	1	RES1	0.000	
6	  O2	22.885	9.707	-1.850	O.2	1	RES1	0.000	
7	  C3	20.139	6.074	1.231	C.2	1	RES1	0.000	
8	  N3	20.092	5.818	-0.096	N.2	1	RES1	0.000	
9	  C4	19.203	5.741	2.176	C.2	1	RES1	0.000	
10	  N4	20.922	6.807	3.236	N.2	1	RES1	0.000	
11	  C5	19.741	6.204	3.407	C.2	1	RES1	0.000	
12	  N5	21.174	6.693	1.908	N.2	1	RES1	0.000	
13	  C6	19.173	6.078	4.719	C.2	1	RES1	0.000	
14	  N6	23.499	9.196	0.275	N.pl3	1	RES1	0.000	
15	  C7	19.018	7.205	5.562	C.2	1	RES1	0.000	
16	  C8	18.485	7.086	6.807	C.2	1	RES1	0.000	
17	  C9	18.111	5.836	7.326	C.2	1	RES1	0.000	
18	 C10	16.588	6.759	8.906	C.2	1	RES1	0.000	
19	 C11	15.661	7.238	7.927	C.2	1	RES1	0.000	
20	 C12	14.733	8.167	8.302	C.2	1	RES1	0.000	
21	 C13	14.648	8.637	9.598	C.2	1	RES1	0.000	
22	 C14	15.529	8.166	10.557	C.2	1	RES1	0.000	
23	 C15	16.510	7.204	10.212	C.2	1	RES1	0.000	
24	 C16	18.275	4.709	6.512	C.2	1	RES1	0.000	
25	 C17	18.787	4.812	5.219	C.2	1	RES1	0.000	
26	 C18	22.425	7.218	1.330	C.3	1	RES1	0.000	
27	 C19	23.594	7.103	2.313	C.3	1	RES1	0.000	
28	 C20	24.873	7.719	1.698	C.3	1	RES1	0.000	
29	 C21	24.631	9.149	1.209	C.3	1	RES1	0.000	
30	 C22	23.671	9.805	-0.958	C.2	1	RES1	0.000	
31	 C23	24.921	10.641	-1.134	C.3	1	RES1	0.000	
32	 C24	24.857	11.985	-0.463	C.3	1	RES1	0.000	
33	 C47	22.232	8.671	0.815	C.3	1	RES1	0.000	
@<TRIPOS>BOND
1 1 2 1
2 1 5 ar
3 1 9 ar
4 3 17 1
5 3 18 1
6 4 8 ar
7 4 5 ar
8 6 30 2
9 7 8 ar
10 7 9 ar
11 7 12 ar
12 9 11 ar
13 10 11 ar
14 10 12 ar
15 11 13 1
16 13 15 ar
17 15 16 ar
18 16 17 ar
19 18 19 ar
20 18 23 ar
21 19 20 ar
22 20 21 ar
23 21 22 ar
24 22 23 ar
25 17 24 ar
26 24 25 ar
27 13 25 ar
28 12 26 1
29 26 27 1
30 26 33 1
31 27 28 1
32 28 29 1
33 14 29 1
34 14 30 1
35 30 31 1
36 31 32 1
37 14 33 1
@<TRIPOS>SUBSTRUCTURE
1	RES1	1	GROUP	1 ****	RES
