# created with PyMOL 2.5.2
@<TRIPOS>MOLECULE
BTK_5P9J_TargetProtein
33 37 1                 
SMALL
USER_CHARGES
@<TRIPOS>ATOM
1	  C1	18.066	5.184	1.615	C.2	1	RES1	0.000	
2	  N1	16.956	4.845	2.398	N.pl3	1	RES1	0.000	
3	  O1	17.444	5.696	8.522	O.3	1	RES1	0.000	
4	  C2	19.014	5.266	-0.471	C.2	1	RES1	0.000	
5	  N2	17.977	4.915	0.304	N.2	1	RES1	0.000	
6	  O2	22.764	9.485	-1.780	O.2	1	RES1	0.000	
7	  C3	20.191	6.087	1.195	C.2	1	RES1	0.000	
8	  N3	20.164	5.852	-0.119	N.2	1	RES1	0.000	
9	  C4	19.215	5.776	2.125	C.2	1	RES1	0.000	
10	  N4	20.950	6.798	3.237	N.2	1	RES1	0.000	
11	  C5	19.731	6.209	3.382	C.2	1	RES1	0.000	
12	  N5	21.200	6.719	1.902	N.2	1	RES1	0.000	
13	  C6	19.155	6.081	4.705	C.2	1	RES1	0.000	
14	  N6	23.587	9.179	0.357	N.pl3	1	RES1	0.000	
15	  C7	18.837	4.843	5.236	C.2	1	RES1	0.000	
16	  C8	18.257	4.740	6.502	C.2	1	RES1	0.000	
17	  C9	18.041	5.860	7.263	C.2	1	RES1	0.000	
18	 C10	16.490	6.663	8.879	C.2	1	RES1	0.000	
19	 C11	15.628	7.277	7.969	C.2	1	RES1	0.000	
20	 C12	14.755	8.268	8.438	C.2	1	RES1	0.000	
21	 C13	14.745	8.648	9.748	C.2	1	RES1	0.000	
22	 C14	15.624	8.072	10.673	C.2	1	RES1	0.000	
23	 C15	16.527	7.077	10.227	C.2	1	RES1	0.000	
24	 C16	18.357	7.153	6.736	C.2	1	RES1	0.000	
25	 C17	18.918	7.254	5.454	C.2	1	RES1	0.000	
26	 C18	22.467	7.253	1.362	C.3	1	RES1	0.000	
27	 C19	23.622	7.137	2.379	C.3	1	RES1	0.000	
28	 C20	24.912	7.738	1.822	C.3	1	RES1	0.000	
29	 C21	24.679	9.146	1.311	C.3	1	RES1	0.000	
30	 C22	23.622	9.723	-0.960	C.2	1	RES1	0.000	
31	 C23	24.830	10.578	-1.283	C.3	1	RES1	0.000	
32	 C24	24.740	11.956	-0.652	C.3	1	RES1	0.000	
33	 C47	22.317	8.677	0.877	C.3	1	RES1	0.000	
@<TRIPOS>BOND
1 1 2 1
2 1 5 ar
3 1 9 ar
4 3 17 1
5 3 18 1
6 4 8 ar
7 4 5 ar
8 6 30 2
9 7 8 ar
10 7 9 ar
11 7 12 ar
12 9 11 ar
13 10 11 ar
14 10 12 ar
15 11 13 1
16 13 15 ar
17 15 16 ar
18 16 17 ar
19 18 19 ar
20 18 23 ar
21 19 20 ar
22 20 21 ar
23 21 22 ar
24 22 23 ar
25 17 24 ar
26 24 25 ar
27 13 25 ar
28 12 26 1
29 26 27 1
30 26 33 1
31 27 28 1
32 28 29 1
33 14 29 1
34 14 30 1
35 30 31 1
36 31 32 1
37 14 33 1
@<TRIPOS>SUBSTRUCTURE
1	RES1	1	GROUP	1 ****	RES
