# created with PyMOL 2.5.2
@<TRIPOS>MOLECULE
BTK_5P9J_TargetProtein
33 37 1                 
SMALL
USER_CHARGES
@<TRIPOS>ATOM
1	  C1	18.062	5.150	1.639	C.2	1	RES1	0.000	
2	  N1	16.961	4.833	2.438	N.pl3	1	RES1	0.000	
3	  O1	17.437	5.704	8.537	O.3	1	RES1	0.000	
4	  C2	19.020	5.223	-0.468	C.2	1	RES1	0.000	
5	  N2	17.974	4.878	0.314	N.2	1	RES1	0.000	
6	  O2	22.697	9.616	-1.715	O.3	1	RES1	0.000	
7	  C3	20.205	6.055	1.212	C.2	1	RES1	0.000	
8	  N3	20.174	5.832	-0.109	N.2	1	RES1	0.000	
9	  C4	19.235	5.747	2.142	C.2	1	RES1	0.000	
10	  N4	20.965	6.774	3.216	N.2	1	RES1	0.000	
11	  C5	19.751	6.189	3.383	C.2	1	RES1	0.000	
12	  N5	21.228	6.675	1.910	N.2	1	RES1	0.000	
13	  C6	19.174	6.092	4.717	C.2	1	RES1	0.000	
14	  N6	23.575	9.205	0.368	N.3	1	RES1	0.000	
15	  C7	19.036	7.227	5.526	C.2	1	RES1	0.000	
16	  C8	18.492	7.125	6.802	C.2	1	RES1	0.000	
17	  C9	18.051	5.877	7.253	C.2	1	RES1	0.000	
18	 C10	16.475	6.678	8.888	C.2	1	RES1	0.000	
19	 C11	15.633	7.273	7.936	C.2	1	RES1	0.000	
20	 C12	14.774	8.291	8.344	C.2	1	RES1	0.000	
21	 C13	14.747	8.691	9.692	C.2	1	RES1	0.000	
22	 C14	15.622	8.098	10.615	C.2	1	RES1	0.000	
23	 C15	16.502	7.132	10.197	C.2	1	RES1	0.000	
24	 C16	18.189	4.751	6.451	C.2	1	RES1	0.000	
25	 C17	18.739	4.859	5.211	C.2	1	RES1	0.000	
26	 C18	22.475	7.200	1.348	C.3	1	RES1	0.000	
27	 C19	23.626	7.075	2.357	C.3	1	RES1	0.000	
28	 C20	24.906	7.649	1.760	C.3	1	RES1	0.000	
29	 C21	24.700	9.116	1.279	C.3	1	RES1	0.000	
30	 C22	23.560	9.806	-0.905	C.3	1	RES1	0.000	
31	 C23	24.762	10.666	-1.277	C.3	1	RES1	0.000	
32	 C24	24.733	12.010	-0.598	C.3	1	RES1	0.000	
33	 C42	22.302	8.657	0.895	C.3	1	RES1	0.000	
@<TRIPOS>BOND
1 1 2 1
2 1 5 ar
3 1 9 ar
4 3 17 1
5 3 18 1
6 4 8 ar
7 4 5 ar
8 6 30 1
9 7 8 ar
10 7 9 ar
11 7 12 ar
12 9 11 ar
13 10 11 ar
14 10 12 ar
15 11 13 1
16 13 15 ar
17 15 16 ar
18 16 17 ar
19 18 19 ar
20 18 23 ar
21 19 20 ar
22 20 21 ar
23 21 22 ar
24 22 23 ar
25 17 24 ar
26 24 25 ar
27 13 25 ar
28 12 26 1
29 26 27 1
30 26 33 1
31 27 28 1
32 28 29 1
33 14 29 1
34 14 30 1
35 30 31 1
36 31 32 1
37 14 33 1
@<TRIPOS>SUBSTRUCTURE
1	RES1	1	GROUP	1 ****	RES
