# created with PyMOL 2.5.2
@<TRIPOS>MOLECULE
WDR5_4QL1_TargetProtein
33 36 1                 
SMALL
USER_CHARGES
@<TRIPOS>ATOM
1	  C1	-11.055	-24.887	7.638	C.3	1	RES1	0.000	
2	  N1	-11.573	-24.665	6.285	N.3	1	RES1	0.000	
3	  C2	-10.565	-25.079	5.269	C.3	1	RES1	0.000	
4	  N2	-12.391	-25.492	3.642	N.pl3	1	RES1	0.000	
5	  C3	-11.060	-24.885	3.860	C.3	1	RES1	0.000	
6	  C4	-12.820	-25.679	2.295	C.2	1	RES1	0.000	
7	  C5	-13.976	-25.056	1.815	C.2	1	RES1	0.000	
8	  C6	-14.360	-25.233	0.486	C.2	1	RES1	0.000	
9	  O6	-9.114	-26.273	0.684	O.2	1	RES1	0.000	
10	  C7	-13.608	-25.989	-0.418	C.2	1	RES1	0.000	
11	  O7	-6.520	-30.622	4.438	O.2	1	RES1	0.000	
12	  C8	-14.050	-26.141	-1.808	C.2	1	RES1	0.000	
13	  C9	-15.412	-26.143	-2.173	C.2	1	RES1	0.000	
14	  N9	-10.903	-27.135	1.921	N.pl3	1	RES1	0.000	
15	 C10	-15.799	-26.269	-3.504	C.2	1	RES1	0.000	
16	 N10	-8.334	-30.113	3.170	N.2	1	RES1	0.000	
17	 C11	-14.859	-26.478	-4.502	C.2	1	RES1	0.000	
18	 C12	-13.516	-26.482	-4.165	C.2	1	RES1	0.000	
19	 C38	-13.130	-26.329	-2.826	C.2	1	RES1	0.000	
20	 C39	-12.466	-26.609	0.081	C.2	1	RES1	0.000	
21	 C40	-12.067	-26.454	1.397	C.2	1	RES1	0.000	
22	 C41	-9.591	-27.032	1.551	C.2	1	RES1	0.000	
23	 C42	-8.688	-27.899	2.355	C.2	1	RES1	0.000	
24	 C43	-9.091	-29.180	2.458	C.2	1	RES1	0.000	
25	 C44	-7.191	-29.815	3.826	C.2	1	RES1	0.000	
26	 C45	-6.744	-28.372	3.738	C.2	1	RES1	0.000	
27	 C46	-7.473	-27.499	3.038	C.2	1	RES1	0.000	
28	 C47	-7.050	-26.026	2.956	C.3	1	RES1	0.000	
29	 C48	-13.402	-25.120	4.659	C.3	1	RES1	0.000	
30	 C49	-12.860	-25.345	6.067	C.3	1	RES1	0.000	
31	  F1	-6.637	-25.671	1.700	 F	1	RES1	0.000	
32	  F2	-8.036	-25.177	3.316	 F	1	RES1	0.000	
33	  F3	-5.991	-25.756	3.764	 F	1	RES1	0.000	
@<TRIPOS>BOND
1 1 2 1
2 2 3 1
3 2 30 1
4 3 5 1
5 4 5 1
6 4 6 1
7 4 29 1
8 6 7 ar
9 6 21 ar
10 7 8 ar
11 8 10 ar
12 10 12 1
13 12 13 ar
14 13 15 ar
15 15 17 ar
16 16 24 ar
17 16 25 ar
18 17 18 ar
19 18 19 ar
20 12 19 ar
21 10 20 ar
22 20 21 ar
23 14 21 1
24 9 22 2
25 14 22 1
26 22 23 1
27 23 24 ar
28 23 27 ar
29 11 25 2
30 25 26 ar
31 26 27 ar
32 27 28 1
33 29 30 1
34 28 31 1
35 28 32 1
36 28 33 1
@<TRIPOS>SUBSTRUCTURE
1	RES1	1	GROUP	1 ****	RES
