# created with PyMOL 2.5.2
@<TRIPOS>MOLECULE
WDR5_4QL1_TargetProtein
33 36 1                 
SMALL
USER_CHARGES
@<TRIPOS>ATOM
1	  C1	-11.079	-24.881	7.646	C.3	1	RES1	0.000	
2	  N1	-11.593	-24.666	6.305	N.3	1	RES1	0.000	
3	  C2	-12.856	-25.394	6.070	C.3	1	RES1	0.000	
4	  N2	-12.385	-25.482	3.674	N.pl3	1	RES1	0.000	
5	  C3	-13.412	-25.176	4.668	C.3	1	RES1	0.000	
6	  C4	-12.814	-25.658	2.310	C.2	1	RES1	0.000	
7	  C5	-13.963	-25.018	1.790	C.2	1	RES1	0.000	
8	  C6	-14.334	-25.176	0.472	C.2	1	RES1	0.000	
9	  C7	-13.623	-25.990	-0.422	C.2	1	RES1	0.000	
10	  C8	-14.057	-26.148	-1.813	C.2	1	RES1	0.000	
11	  C9	-15.412	-26.109	-2.182	C.2	1	RES1	0.000	
12	  N9	-10.940	-27.159	1.973	N.pl3	1	RES1	0.000	
13	 C10	-15.800	-26.233	-3.507	C.2	1	RES1	0.000	
14	 N10	-8.346	-30.113	3.172	N.2	1	RES1	0.000	
15	 O10	-9.154	-26.341	0.693	O.2	1	RES1	0.000	
16	 C11	-14.874	-26.456	-4.519	C.2	1	RES1	0.000	
17	 O11	-6.495	-30.596	4.447	O.2	1	RES1	0.000	
18	 C12	-13.508	-26.516	-4.179	C.2	1	RES1	0.000	
19	 C44	-13.123	-26.343	-2.850	C.2	1	RES1	0.000	
20	 C45	-12.485	-26.635	0.093	C.2	1	RES1	0.000	
21	 C46	-12.078	-26.473	1.415	C.2	1	RES1	0.000	
22	 C47	-9.611	-27.054	1.564	C.2	1	RES1	0.000	
23	 C48	-8.696	-27.931	2.381	C.2	1	RES1	0.000	
24	 C49	-9.089	-29.200	2.486	C.2	1	RES1	0.000	
25	 C50	-7.152	-29.815	3.833	C.2	1	RES1	0.000	
26	 C51	-6.695	-28.365	3.713	C.2	1	RES1	0.000	
27	 C52	-7.438	-27.472	3.019	C.2	1	RES1	0.000	
28	 C53	-7.008	-26.044	2.921	C.3	1	RES1	0.000	
29	 C54	-11.104	-24.795	3.834	C.3	1	RES1	0.000	
30	 C55	-10.581	-25.048	5.272	C.3	1	RES1	0.000	
31	  F1	-7.977	-25.189	3.388	 F	1	RES1	0.000	
32	  F2	-6.732	-25.656	1.658	 F	1	RES1	0.000	
33	  F3	-5.919	-25.774	3.691	 F	1	RES1	0.000	
@<TRIPOS>BOND
1 1 2 1
2 2 3 1
3 2 30 1
4 3 5 1
5 4 5 1
6 4 6 1
7 4 29 1
8 6 7 ar
9 6 21 ar
10 7 8 ar
11 8 9 ar
12 9 10 1
13 10 11 ar
14 11 13 ar
15 13 16 ar
16 14 24 ar
17 14 25 ar
18 15 22 2
19 16 18 ar
20 17 25 2
21 18 19 ar
22 10 19 ar
23 9 20 ar
24 20 21 ar
25 12 21 1
26 12 22 1
27 22 23 1
28 23 24 ar
29 23 27 ar
30 25 26 ar
31 26 27 ar
32 27 28 1
33 29 30 1
34 28 31 1
35 28 32 1
36 28 33 1
@<TRIPOS>SUBSTRUCTURE
1	RES1	1	GROUP	1 ****	RES
