# created with PyMOL 2.5.2
@<TRIPOS>MOLECULE
CDK6_2EUF_TargetProtein
33 37 1                 
SMALL
USER_CHARGES
@<TRIPOS>ATOM
1	  C1	34.596	27.708	59.360	C.3	1	RES1	0.000	
2	  N1	31.431	22.959	63.538	N.2	1	RES1	0.000	
3	  O1	32.627	28.727	60.207	O.2	1	RES1	0.000	
4	  C2	33.233	27.709	59.979	C.2	1	RES1	0.000	
5	  N2	30.250	21.003	62.740	N.pl3	1	RES1	0.000	
6	  C3	32.657	26.379	60.345	C.2	1	RES1	0.000	
7	  N3	27.827	16.885	59.710	N.pl3	1	RES1	0.000	
8	  C4	32.683	25.961	61.626	C.2	1	RES1	0.000	
9	  N4	26.837	14.724	58.028	N.3	1	RES1	0.000	
10	  C5	33.359	26.721	62.776	C.3	1	RES1	0.000	
11	  C6	32.070	24.657	61.961	C.2	1	RES1	0.000	
12	  C7	31.997	24.105	63.250	C.2	1	RES1	0.000	
13	  O7	32.035	26.011	58.116	O.2	1	RES1	0.000	
14	  C8	30.891	22.240	62.506	C.2	1	RES1	0.000	
15	  N8	29.524	18.819	62.482	N.2	1	RES1	0.000	
16	  C9	29.623	20.041	61.944	C.2	1	RES1	0.000	
17	  N9	30.901	22.676	61.259	N.2	1	RES1	0.000	
18	 C10	29.147	20.293	60.626	C.2	1	RES1	0.000	
19	 N10	31.439	24.321	59.618	N.2	1	RES1	0.000	
20	 C11	28.560	19.257	59.921	C.2	1	RES1	0.000	
21	 C12	28.426	17.966	60.445	C.2	1	RES1	0.000	
22	 C13	27.191	17.187	58.411	C.3	1	RES1	0.000	
23	 C14	26.231	16.070	57.962	C.3	1	RES1	0.000	
24	 C30	27.315	14.476	59.390	C.3	1	RES1	0.000	
25	 C31	28.323	15.515	59.883	C.3	1	RES1	0.000	
26	 C32	28.950	17.814	61.750	C.2	1	RES1	0.000	
27	 C33	31.456	23.862	60.970	C.2	1	RES1	0.000	
28	 C34	30.815	23.520	58.567	C.3	1	RES1	0.000	
29	 C35	29.825	24.239	57.657	C.3	1	RES1	0.000	
30	 C36	28.569	23.393	57.613	C.3	1	RES1	0.000	
31	 C37	29.028	21.998	58.029	C.3	1	RES1	0.000	
32	 C38	30.081	22.252	59.074	C.3	1	RES1	0.000	
33	 C39	32.001	25.573	59.278	C.2	1	RES1	0.000	
@<TRIPOS>BOND
1 1 4 1
2 2 12 ar
3 2 14 ar
4 3 4 2
5 4 6 1
6 5 14 1
7 5 16 1
8 6 8 ar
9 6 33 ar
10 7 25 1
11 8 10 1
12 8 11 ar
13 11 12 ar
14 14 17 ar
15 15 16 ar
16 16 18 ar
17 18 20 ar
18 19 27 ar
19 19 28 1
20 19 33 ar
21 20 21 ar
22 7 21 1
23 21 26 ar
24 7 22 1
25 22 23 1
26 9 23 1
27 9 24 1
28 24 25 1
29 15 26 ar
30 11 27 ar
31 17 27 ar
32 28 29 1
33 28 32 1
34 29 30 1
35 30 31 1
36 31 32 1
37 13 33 2
@<TRIPOS>SUBSTRUCTURE
1	RES1	1	GROUP	1 ****	RES
