# created with PyMOL 2.5.2
@<TRIPOS>MOLECULE
MLLT1_6HT1_TargetProtein
29 33 1                 
SMALL
USER_CHARGES
@<TRIPOS>ATOM
1	  C1	-12.002	9.375	48.776	C.3	1	RES1	0.000	
2	  N1	-12.791	7.225	47.808	N.3	1	RES1	0.000	
3	  O1	-14.920	1.367	52.998	O.2	1	RES1	0.000	
4	  C2	-12.469	8.628	47.548	C.3	1	RES1	0.000	
5	  N2	-15.010	4.783	47.709	N.2	1	RES1	0.000	
6	  C3	-11.349	8.566	46.480	C.3	1	RES1	0.000	
7	  N3	-15.274	0.286	50.962	N.pl3	1	RES1	0.000	
8	  C4	-11.355	7.131	46.006	C.3	1	RES1	0.000	
9	  N4	-16.334	-5.281	54.243	N.2	1	RES1	0.000	
10	  C5	-12.623	6.537	46.523	C.3	1	RES1	0.000	
11	  N5	-15.361	-4.619	54.900	N.2	1	RES1	0.000	
12	  C6	-14.138	7.050	48.405	C.3	1	RES1	0.000	
13	  C7	-14.484	5.590	48.602	C.2	1	RES1	0.000	
14	  C8	-15.164	3.596	48.330	C.2	1	RES1	0.000	
15	  C9	-15.684	2.365	47.862	C.2	1	RES1	0.000	
16	  N9	-14.305	4.963	49.779	N.2	1	RES1	0.000	
17	 C10	-15.719	1.267	48.726	C.2	1	RES1	0.000	
18	 C11	-15.290	1.392	50.069	C.2	1	RES1	0.000	
19	 C12	-15.086	0.349	52.333	C.2	1	RES1	0.000	
20	 C13	-15.115	-0.973	53.036	C.2	1	RES1	0.000	
21	 C14	-14.233	-1.176	54.127	C.2	1	RES1	0.000	
22	 C15	-14.222	-2.374	54.827	C.2	1	RES1	0.000	
23	 C16	-15.099	-3.358	54.424	C.2	1	RES1	0.000	
24	 C17	-16.006	-3.178	53.377	C.2	1	RES1	0.000	
25	 C18	-16.030	-1.975	52.679	C.2	1	RES1	0.000	
26	 C19	-16.724	-4.391	53.331	C.2	1	RES1	0.000	
27	 C20	-14.666	-5.275	55.997	C.3	1	RES1	0.000	
28	 C41	-14.775	2.588	50.527	C.2	1	RES1	0.000	
29	 C42	-14.722	3.671	49.648	C.2	1	RES1	0.000	
@<TRIPOS>BOND
1 1 4 1
2 2 4 1
3 2 10 1
4 2 12 1
5 3 19 2
6 4 6 1
7 5 13 ar
8 5 14 ar
9 6 8 1
10 8 10 1
11 9 11 ar
12 12 13 1
13 13 16 ar
14 14 15 ar
15 15 17 ar
16 17 18 ar
17 7 18 1
18 18 28 ar
19 7 19 1
20 19 20 1
21 20 21 ar
22 20 25 ar
23 21 22 ar
24 22 23 ar
25 11 23 ar
26 23 24 ar
27 24 25 ar
28 24 26 ar
29 9 26 ar
30 11 27 1
31 28 29 ar
32 14 29 ar
33 16 29 ar
@<TRIPOS>SUBSTRUCTURE
1	RES1	1	GROUP	1 ****	RES
