# created with PyMOL 2.5.2
@<TRIPOS>MOLECULE
MLLT1_6HT1_TargetProtein
29 33 1                 
SMALL
USER_CHARGES
@<TRIPOS>ATOM
1	  C1	-12.134	9.427	48.738	C.3	1	RES1	0.000	
2	  N1	-12.881	7.225	47.788	N.3	1	RES1	0.000	
3	  O1	-14.662	1.399	53.053	O.2	1	RES1	0.000	
4	  C2	-12.584	8.639	47.495	C.3	1	RES1	0.000	
5	  N2	-15.024	4.727	47.694	N.2	1	RES1	0.000	
6	  C3	-11.474	8.601	46.424	C.3	1	RES1	0.000	
7	  N3	-15.089	0.289	51.049	N.pl3	1	RES1	0.000	
8	  C4	-11.433	7.167	45.962	C.3	1	RES1	0.000	
9	  N4	-16.524	-5.201	54.065	N.2	1	RES1	0.000	
10	  C5	-12.698	6.542	46.498	C.3	1	RES1	0.000	
11	  N5	-15.541	-4.627	54.806	N.2	1	RES1	0.000	
12	  C6	-14.210	7.014	48.355	C.3	1	RES1	0.000	
13	  C7	-14.514	5.571	48.593	C.2	1	RES1	0.000	
14	  C8	-15.118	3.527	48.362	C.2	1	RES1	0.000	
15	  C9	-15.610	2.285	47.933	C.2	1	RES1	0.000	
16	  N9	-14.310	4.953	49.782	N.2	1	RES1	0.000	
17	 C10	-15.582	1.206	48.795	C.2	1	RES1	0.000	
18	 C11	-15.127	1.351	50.129	C.2	1	RES1	0.000	
19	 C12	-14.886	0.395	52.434	C.2	1	RES1	0.000	
20	 C13	-14.972	-0.914	53.171	C.2	1	RES1	0.000	
21	 C14	-14.163	-1.207	54.252	C.2	1	RES1	0.000	
22	 C15	-14.266	-2.453	54.927	C.2	1	RES1	0.000	
23	 C16	-15.189	-3.357	54.407	C.2	1	RES1	0.000	
24	 C17	-16.004	-3.104	53.312	C.2	1	RES1	0.000	
25	 C18	-15.912	-1.866	52.673	C.2	1	RES1	0.000	
26	 C19	-16.772	-4.274	53.172	C.2	1	RES1	0.000	
27	 C20	-14.977	-5.391	55.932	C.3	1	RES1	0.000	
28	 C39	-14.635	2.579	50.565	C.2	1	RES1	0.000	
29	 C40	-14.660	3.631	49.670	C.2	1	RES1	0.000	
@<TRIPOS>BOND
1 1 4 1
2 2 4 1
3 2 10 1
4 2 12 1
5 3 19 2
6 4 6 1
7 5 13 ar
8 5 14 ar
9 6 8 1
10 8 10 1
11 9 11 ar
12 12 13 1
13 13 16 ar
14 14 15 ar
15 15 17 ar
16 17 18 ar
17 7 18 1
18 18 28 ar
19 7 19 1
20 19 20 1
21 20 21 ar
22 20 25 ar
23 21 22 ar
24 22 23 ar
25 11 23 ar
26 23 24 ar
27 24 25 ar
28 24 26 ar
29 9 26 ar
30 11 27 1
31 28 29 ar
32 14 29 ar
33 16 29 ar
@<TRIPOS>SUBSTRUCTURE
1	RES1	1	GROUP	1 ****	RES
