# created with PyMOL 2.5.2
@<TRIPOS>MOLECULE
MLLT1_6HT1_TargetProtein
29 33 1                 
SMALL
USER_CHARGES
@<TRIPOS>ATOM
1	  C1	-12.253	9.471	48.637	C.3	1	RES1	0.000	
2	  N1	-12.921	7.285	47.672	N.3	1	RES1	0.000	
3	  O1	-14.577	1.357	53.219	O.2	1	RES1	0.000	
4	  C2	-12.643	8.691	47.383	C.3	1	RES1	0.000	
5	  N2	-15.010	4.697	47.681	N.2	1	RES1	0.000	
6	  C3	-11.523	8.674	46.381	C.3	1	RES1	0.000	
7	  N3	-15.013	0.316	51.144	N.pl3	1	RES1	0.000	
8	  C4	-11.416	7.227	45.893	C.3	1	RES1	0.000	
9	  N4	-16.604	-5.235	54.002	N.2	1	RES1	0.000	
10	  C5	-12.691	6.570	46.391	C.3	1	RES1	0.000	
11	  N5	-15.637	-4.706	54.792	N.2	1	RES1	0.000	
12	  C6	-14.273	7.028	48.217	C.3	1	RES1	0.000	
13	  C7	-14.534	5.602	48.510	C.2	1	RES1	0.000	
14	  C8	-15.057	3.524	48.406	C.2	1	RES1	0.000	
15	  C9	-15.484	2.233	48.011	C.2	1	RES1	0.000	
16	  N9	-14.291	5.040	49.745	N.2	1	RES1	0.000	
17	 C10	-15.467	1.214	48.966	C.2	1	RES1	0.000	
18	 C11	-14.994	1.440	50.251	C.2	1	RES1	0.000	
19	 C12	-14.822	0.344	52.522	C.2	1	RES1	0.000	
20	 C13	-14.955	-0.965	53.204	C.2	1	RES1	0.000	
21	 C14	-14.164	-1.331	54.279	C.2	1	RES1	0.000	
22	 C15	-14.311	-2.565	54.943	C.2	1	RES1	0.000	
23	 C16	-15.256	-3.431	54.420	C.2	1	RES1	0.000	
24	 C17	-16.043	-3.130	53.303	C.2	1	RES1	0.000	
25	 C18	-15.882	-1.897	52.691	C.2	1	RES1	0.000	
26	 C19	-16.841	-4.271	53.101	C.2	1	RES1	0.000	
27	 C20	-15.103	-5.491	55.896	C.3	1	RES1	0.000	
28	 C37	-14.571	2.716	50.665	C.2	1	RES1	0.000	
29	 C38	-14.615	3.726	49.709	C.2	1	RES1	0.000	
@<TRIPOS>BOND
1 1 4 1
2 2 4 1
3 2 10 1
4 2 12 1
5 3 19 2
6 4 6 1
7 5 13 ar
8 5 14 ar
9 6 8 1
10 8 10 1
11 9 11 ar
12 12 13 1
13 13 16 ar
14 14 15 ar
15 15 17 ar
16 17 18 ar
17 7 18 1
18 18 28 ar
19 7 19 1
20 19 20 1
21 20 21 ar
22 20 25 ar
23 21 22 ar
24 22 23 ar
25 11 23 ar
26 23 24 ar
27 24 25 ar
28 24 26 ar
29 9 26 ar
30 11 27 1
31 28 29 ar
32 14 29 ar
33 16 29 ar
@<TRIPOS>SUBSTRUCTURE
1	RES1	1	GROUP	1 ****	RES
