# created with PyMOL 2.5.2
@<TRIPOS>MOLECULE
BTK_5P9J_TargetProtein
33 37 1                 
SMALL
USER_CHARGES
@<TRIPOS>ATOM
1	  O6	22.603	9.693	-1.660	O.3	1	RES1	0.000	
2	  N7	23.532	9.241	0.405	N.3	1	RES1	0.000	
3	  O7	17.447	5.754	8.519	O.3	1	RES1	0.000	
4	  N8	21.243	6.689	1.912	N.2	1	RES1	0.000	
5	  N9	20.996	6.702	3.228	N.2	1	RES1	0.000	
6	 N10	17.070	4.636	2.439	N.pl3	1	RES1	0.000	
7	 N11	17.955	4.907	0.306	N.2	1	RES1	0.000	
8	 N12	20.129	5.930	-0.119	N.2	1	RES1	0.000	
9	 C35	24.783	11.977	-0.612	C.3	1	RES1	0.000	
10	 C36	24.769	10.620	-1.258	C.3	1	RES1	0.000	
11	 C37	23.528	9.803	-0.879	C.3	1	RES1	0.000	
12	 C38	24.692	9.134	1.299	C.3	1	RES1	0.000	
13	 C39	24.888	7.681	1.740	C.3	1	RES1	0.000	
14	 C40	23.646	7.065	2.319	C.3	1	RES1	0.000	
15	 C41	22.465	7.189	1.358	C.3	1	RES1	0.000	
16	 C42	19.768	6.163	3.407	C.2	1	RES1	0.000	
17	 C43	19.159	6.055	4.704	C.2	1	RES1	0.000	
18	 C44	19.025	7.177	5.528	C.2	1	RES1	0.000	
19	 C45	18.442	7.044	6.790	C.2	1	RES1	0.000	
20	 C46	17.996	5.817	7.253	C.2	1	RES1	0.000	
21	 C47	16.523	6.738	8.879	C.2	1	RES1	0.000	
22	 C48	15.502	7.197	8.021	C.2	1	RES1	0.000	
23	 C49	14.651	8.195	8.407	C.2	1	RES1	0.000	
24	 C50	14.761	8.745	9.686	C.2	1	RES1	0.000	
25	 C51	15.801	8.322	10.548	C.2	1	RES1	0.000	
26	 C52	16.704	7.308	10.128	C.2	1	RES1	0.000	
27	 C53	18.176	4.652	6.446	C.2	1	RES1	0.000	
28	 C54	18.751	4.777	5.173	C.2	1	RES1	0.000	
29	 C55	19.228	5.738	2.137	C.2	1	RES1	0.000	
30	 C56	18.104	5.094	1.638	C.2	1	RES1	0.000	
31	 C57	18.987	5.350	-0.510	C.2	1	RES1	0.000	
32	 C58	20.187	6.080	1.202	C.2	1	RES1	0.000	
33	 C59	22.274	8.684	0.922	C.3	1	RES1	0.000	
@<TRIPOS>BOND
1 4 5 ar
2 6 30 1
3 7 30 ar
4 7 31 ar
5 8 31 ar
6 8 32 ar
7 9 10 1
8 10 11 1
9 1 11 1
10 2 11 1
11 2 12 1
12 12 13 1
13 13 14 1
14 14 15 1
15 4 15 1
16 15 33 1
17 5 16 ar
18 16 17 1
19 16 29 ar
20 17 18 ar
21 17 28 ar
22 18 19 ar
23 19 20 ar
24 3 20 1
25 20 27 ar
26 3 21 1
27 21 22 ar
28 21 26 ar
29 22 23 ar
30 23 24 ar
31 24 25 ar
32 25 26 ar
33 27 28 ar
34 29 30 ar
35 29 32 ar
36 4 32 ar
37 2 33 1
@<TRIPOS>SUBSTRUCTURE
1	RES1	1	GROUP	1 ****	RES
