# created with PyMOL 2.5.2
@<TRIPOS>MOLECULE
CDK6_2EUF_TargetProtein
33 37 1                 
SMALL
USER_CHARGES
@<TRIPOS>ATOM
1	  O5	32.488	28.689	60.263	O.2	1	RES1	0.000	
2	  O6	31.685	26.032	58.255	O.2	1	RES1	0.000	
3	  N7	26.656	14.635	58.292	N.3	1	RES1	0.000	
4	  N8	27.680	16.814	59.926	N.pl3	1	RES1	0.000	
5	  N9	30.395	20.836	62.809	N.pl3	1	RES1	0.000	
6	 N10	31.647	22.727	63.544	N.2	1	RES1	0.000	
7	 N11	31.134	24.359	59.758	N.2	1	RES1	0.000	
8	 N12	30.785	22.612	61.350	N.2	1	RES1	0.000	
9	 N13	29.627	18.657	62.580	N.2	1	RES1	0.000	
10	 C33	26.001	15.946	58.295	C.3	1	RES1	0.000	
11	 C34	26.958	17.082	58.682	C.3	1	RES1	0.000	
12	 C35	28.333	17.882	60.613	C.2	1	RES1	0.000	
13	 C36	28.450	19.189	60.094	C.2	1	RES1	0.000	
14	 C37	29.120	20.186	60.808	C.2	1	RES1	0.000	
15	 C38	29.727	19.901	62.062	C.2	1	RES1	0.000	
16	 C39	30.971	22.068	62.578	C.2	1	RES1	0.000	
17	 C40	32.153	23.918	63.250	C.2	1	RES1	0.000	
18	 C41	32.030	24.524	61.989	C.2	1	RES1	0.000	
19	 C42	32.603	25.882	61.689	C.2	1	RES1	0.000	
20	 C43	33.290	26.650	62.792	C.3	1	RES1	0.000	
21	 C44	32.474	26.332	60.416	C.2	1	RES1	0.000	
22	 C45	33.068	27.647	60.042	C.2	1	RES1	0.000	
23	 C46	34.443	27.649	59.419	C.3	1	RES1	0.000	
24	 C47	31.732	25.575	59.387	C.2	1	RES1	0.000	
25	 C48	30.366	23.557	58.759	C.3	1	RES1	0.000	
26	 C49	31.223	22.964	57.689	C.3	1	RES1	0.000	
27	 C50	30.326	22.923	56.453	C.3	1	RES1	0.000	
28	 C51	29.532	24.175	56.563	C.3	1	RES1	0.000	
29	 C52	29.251	24.338	58.051	C.3	1	RES1	0.000	
30	 C53	31.312	23.806	61.069	C.2	1	RES1	0.000	
31	 C54	28.981	17.704	61.843	C.2	1	RES1	0.000	
32	 C55	28.230	15.431	60.043	C.3	1	RES1	0.000	
33	 C56	27.213	14.365	59.628	C.3	1	RES1	0.000	
@<TRIPOS>BOND
1 6 16 ar
2 6 17 ar
3 7 24 ar
4 7 25 1
5 7 30 ar
6 8 16 ar
7 8 30 ar
8 9 15 ar
9 9 31 ar
10 3 10 1
11 10 11 1
12 4 11 1
13 4 12 1
14 12 13 ar
15 12 31 ar
16 13 14 ar
17 14 15 ar
18 5 15 1
19 5 16 1
20 17 18 ar
21 18 19 ar
22 18 30 ar
23 19 20 1
24 19 21 ar
25 21 22 1
26 21 24 ar
27 1 22 2
28 22 23 1
29 2 24 2
30 25 26 1
31 25 29 1
32 26 27 1
33 27 28 1
34 28 29 1
35 4 32 1
36 32 33 1
37 3 33 1
@<TRIPOS>SUBSTRUCTURE
1	RES1	1	GROUP	1 ****	RES
