# created with PyMOL 2.5.2
@<TRIPOS>MOLECULE
CDK6_2EUF_TargetProtein
33 37 1                 
SMALL
USER_CHARGES
@<TRIPOS>ATOM
1	  O6	32.437	28.701	60.259	O.2	1	RES1	0.000	
2	  N7	26.190	14.789	58.567	N.3	1	RES1	0.000	
3	  O7	31.629	26.003	58.241	O.2	1	RES1	0.000	
4	  N8	27.860	16.814	59.805	N.pl3	1	RES1	0.000	
5	  N9	30.445	20.803	62.838	N.pl3	1	RES1	0.000	
6	 N10	31.657	22.726	63.574	N.2	1	RES1	0.000	
7	 N11	31.133	24.351	59.774	N.2	1	RES1	0.000	
8	 N12	30.819	22.581	61.394	N.2	1	RES1	0.000	
9	 N13	29.791	18.603	62.473	N.2	1	RES1	0.000	
10	 C35	26.720	15.889	57.779	C.3	1	RES1	0.000	
11	 C36	26.995	17.126	58.646	C.3	1	RES1	0.000	
12	 C37	28.516	17.875	60.510	C.2	1	RES1	0.000	
13	 C38	28.518	19.209	60.071	C.2	1	RES1	0.000	
14	 C39	29.154	20.201	60.809	C.2	1	RES1	0.000	
15	 C40	29.773	19.883	62.024	C.2	1	RES1	0.000	
16	 C41	31.011	22.076	62.613	C.2	1	RES1	0.000	
17	 C42	32.157	23.936	63.265	C.2	1	RES1	0.000	
18	 C43	32.019	24.554	62.010	C.2	1	RES1	0.000	
19	 C44	32.592	25.884	61.702	C.2	1	RES1	0.000	
20	 C45	33.254	26.661	62.795	C.3	1	RES1	0.000	
21	 C46	32.436	26.351	60.426	C.2	1	RES1	0.000	
22	 C47	33.021	27.664	60.036	C.2	1	RES1	0.000	
23	 C48	34.398	27.647	59.372	C.3	1	RES1	0.000	
24	 C49	31.687	25.541	59.395	C.2	1	RES1	0.000	
25	 C50	30.365	23.527	58.795	C.3	1	RES1	0.000	
26	 C51	31.230	22.936	57.704	C.3	1	RES1	0.000	
27	 C52	30.309	22.851	56.475	C.3	1	RES1	0.000	
28	 C53	29.515	24.126	56.595	C.3	1	RES1	0.000	
29	 C54	29.226	24.284	58.073	C.3	1	RES1	0.000	
30	 C55	31.311	23.799	61.097	C.2	1	RES1	0.000	
31	 C56	29.160	17.673	61.739	C.2	1	RES1	0.000	
32	 C57	27.455	15.586	60.563	C.3	1	RES1	0.000	
33	 C58	27.131	14.420	59.631	C.3	1	RES1	0.000	
@<TRIPOS>BOND
1 6 16 ar
2 6 17 ar
3 7 24 ar
4 7 25 1
5 7 30 ar
6 8 16 ar
7 8 30 ar
8 9 15 ar
9 9 31 ar
10 2 10 1
11 10 11 1
12 4 11 1
13 4 12 1
14 12 13 ar
15 12 31 ar
16 13 14 ar
17 14 15 ar
18 5 15 1
19 5 16 1
20 17 18 ar
21 18 19 ar
22 18 30 ar
23 19 20 1
24 19 21 ar
25 21 22 1
26 21 24 ar
27 1 22 2
28 22 23 1
29 3 24 2
30 25 26 1
31 25 29 1
32 26 27 1
33 27 28 1
34 28 29 1
35 4 32 1
36 32 33 1
37 2 33 1
@<TRIPOS>SUBSTRUCTURE
1	RES1	1	GROUP	1 ****	RES
