# created with PyMOL 2.5.2
@<TRIPOS>MOLECULE
CDK6_2EUF_TargetProtein
33 37 1                 
SMALL
USER_CHARGES
@<TRIPOS>ATOM
1	  N7	26.734	14.781	58.048	N.3	1	RES1	0.000	
2	  O7	32.572	28.744	60.098	O.2	1	RES1	0.000	
3	  N8	27.839	16.884	59.723	N.pl3	1	RES1	0.000	
4	  O8	32.037	26.001	58.134	O.2	1	RES1	0.000	
5	  N9	30.258	20.996	62.738	N.pl3	1	RES1	0.000	
6	 N10	31.404	22.939	63.546	N.2	1	RES1	0.000	
7	 N11	31.448	24.329	59.609	N.2	1	RES1	0.000	
8	 N12	30.904	22.687	61.244	N.2	1	RES1	0.000	
9	 N13	29.469	18.819	62.491	N.2	1	RES1	0.000	
10	 C37	27.607	14.454	59.167	C.3	1	RES1	0.000	
11	 C38	28.561	15.596	59.544	C.3	1	RES1	0.000	
12	 C39	28.446	17.940	60.439	C.2	1	RES1	0.000	
13	 C40	28.659	19.239	59.871	C.2	1	RES1	0.000	
14	 C41	29.255	20.262	60.614	C.2	1	RES1	0.000	
15	 C42	29.652	20.035	61.940	C.2	1	RES1	0.000	
16	 C43	30.862	22.235	62.519	C.2	1	RES1	0.000	
17	 C44	31.941	24.114	63.248	C.2	1	RES1	0.000	
18	 C45	32.047	24.672	61.985	C.2	1	RES1	0.000	
19	 C46	32.643	25.984	61.652	C.2	1	RES1	0.000	
20	 C47	33.305	26.744	62.783	C.3	1	RES1	0.000	
21	 C48	32.639	26.383	60.367	C.2	1	RES1	0.000	
22	 C49	33.231	27.704	60.022	C.2	1	RES1	0.000	
23	 C50	34.693	27.716	59.536	C.3	1	RES1	0.000	
24	 C51	32.041	25.552	59.251	C.2	1	RES1	0.000	
25	 C52	30.848	23.506	58.536	C.3	1	RES1	0.000	
26	 C53	29.905	24.248	57.570	C.3	1	RES1	0.000	
27	 C54	28.649	23.391	57.513	C.3	1	RES1	0.000	
28	 C55	29.083	21.994	57.956	C.3	1	RES1	0.000	
29	 C56	30.109	22.266	59.048	C.3	1	RES1	0.000	
30	 C57	31.452	23.870	60.974	C.2	1	RES1	0.000	
31	 C58	28.887	17.841	61.769	C.2	1	RES1	0.000	
32	 C59	26.805	17.173	58.716	C.3	1	RES1	0.000	
33	 C60	25.919	15.964	58.373	C.3	1	RES1	0.000	
@<TRIPOS>BOND
1 6 16 ar
2 6 17 ar
3 7 24 ar
4 7 25 1
5 7 30 ar
6 8 16 ar
7 8 30 ar
8 9 15 ar
9 9 31 ar
10 1 10 1
11 10 11 1
12 3 11 1
13 3 12 1
14 12 13 ar
15 12 31 ar
16 13 14 ar
17 14 15 ar
18 5 15 1
19 5 16 1
20 17 18 ar
21 18 19 ar
22 18 30 ar
23 19 20 1
24 19 21 ar
25 21 22 1
26 21 24 ar
27 2 22 2
28 22 23 1
29 4 24 2
30 25 26 1
31 25 29 1
32 26 27 1
33 27 28 1
34 28 29 1
35 3 32 1
36 32 33 1
37 1 33 1
@<TRIPOS>SUBSTRUCTURE
1	RES1	1	GROUP	1 ****	RES
