# created with PyMOL 2.5.2
@<TRIPOS>MOLECULE
CDK6_2EUF_TargetProtein
33 37 1                 
SMALL
USER_CHARGES
@<TRIPOS>ATOM
1	  C1	34.358	27.620	59.296	C.3	1	RES1	0.000	
2	  N1	31.602	22.784	63.610	N.2	1	RES1	0.000	
3	  O1	32.447	28.670	60.270	O.2	1	RES1	0.000	
4	  C2	33.050	27.638	60.005	C.2	1	RES1	0.000	
5	  N2	30.288	20.903	62.917	N.pl3	1	RES1	0.000	
6	  C3	32.458	26.313	60.394	C.2	1	RES1	0.000	
7	  N3	27.709	16.865	59.882	N.pl3	1	RES1	0.000	
8	  C4	32.696	25.838	61.657	C.2	1	RES1	0.000	
9	  N4	26.668	14.738	58.177	N.3	1	RES1	0.000	
10	  C5	33.565	26.528	62.693	C.3	1	RES1	0.000	
11	  C6	32.082	24.539	62.034	C.2	1	RES1	0.000	
12	  C7	32.185	23.945	63.293	C.2	1	RES1	0.000	
13	  C8	30.899	22.124	62.679	C.2	1	RES1	0.000	
14	  C9	29.635	19.953	62.099	C.2	1	RES1	0.000	
15	  N9	29.460	18.743	62.638	N.2	1	RES1	0.000	
16	 C10	29.192	20.223	60.802	C.2	1	RES1	0.000	
17	 N10	30.761	22.611	61.410	N.2	1	RES1	0.000	
18	 O10	31.455	26.064	58.315	O.2	1	RES1	0.000	
19	 C11	28.565	19.223	60.079	C.2	1	RES1	0.000	
20	 N11	31.176	24.283	59.746	N.2	1	RES1	0.000	
21	 C12	28.337	17.951	60.603	C.2	1	RES1	0.000	
22	 C13	28.465	15.586	59.729	C.3	1	RES1	0.000	
23	 C14	27.539	14.416	59.333	C.3	1	RES1	0.000	
24	 C38	25.870	15.924	58.481	C.3	1	RES1	0.000	
25	 C39	26.716	17.169	58.835	C.3	1	RES1	0.000	
26	 C40	28.865	17.786	61.899	C.2	1	RES1	0.000	
27	 C41	31.350	23.779	61.091	C.2	1	RES1	0.000	
28	 C42	30.393	23.484	58.827	C.3	1	RES1	0.000	
29	 C43	31.245	22.779	57.722	C.3	1	RES1	0.000	
30	 C44	30.670	23.223	56.366	C.3	1	RES1	0.000	
31	 C45	29.229	23.573	56.695	C.3	1	RES1	0.000	
32	 C46	29.312	24.246	58.062	C.3	1	RES1	0.000	
33	 C47	31.658	25.541	59.389	C.2	1	RES1	0.000	
@<TRIPOS>BOND
1 1 4 1
2 2 12 ar
3 2 13 ar
4 3 4 2
5 4 6 1
6 5 13 1
7 5 14 1
8 6 8 ar
9 6 33 ar
10 7 25 1
11 8 10 1
12 8 11 ar
13 11 12 ar
14 14 15 ar
15 14 16 ar
16 16 19 ar
17 13 17 ar
18 17 27 ar
19 18 33 2
20 19 21 ar
21 20 27 ar
22 20 28 1
23 20 33 ar
24 7 21 1
25 21 26 ar
26 7 22 1
27 22 23 1
28 9 23 1
29 9 24 1
30 24 25 1
31 15 26 ar
32 11 27 ar
33 28 29 1
34 28 32 1
35 29 30 1
36 30 31 1
37 31 32 1
@<TRIPOS>SUBSTRUCTURE
1	RES1	1	GROUP	1 ****	RES
