# created with PyMOL 2.5.2
@<TRIPOS>MOLECULE
BRD7_6V1E_TargetProtein
26 28 1                 
SMALL
USER_CHARGES
@<TRIPOS>ATOM
1	  C1	23.762	49.468	19.032	C.3	1	RES1	0.000	
2	  N1	27.094	43.915	18.019	N.2	1	RES1	0.000	
3	  O1	24.573	49.772	20.206	O.3	1	RES1	0.000	
4	  C2	25.683	48.922	20.452	C.2	1	RES1	0.000	
5	  N2	31.177	46.039	16.466	N.2	1	RES1	0.000	
6	  O2	28.454	42.909	16.449	O.2	1	RES1	0.000	
7	  C3	26.098	47.926	19.570	C.2	1	RES1	0.000	
8	  N3	25.089	49.847	23.665	N.3	1	RES1	0.000	
9	  O3	28.214	48.719	23.117	O.3	1	RES1	0.000	
10	  C4	27.222	47.132	19.886	C.2	1	RES1	0.000	
11	  C5	27.653	46.078	18.943	C.2	1	RES1	0.000	
12	  C6	26.818	45.012	18.870	C.2	1	RES1	0.000	
13	  C7	26.114	42.836	18.050	C.3	1	RES1	0.000	
14	  C8	28.197	43.831	17.204	C.2	1	RES1	0.000	
15	  C9	29.143	44.993	17.247	C.2	1	RES1	0.000	
16	 C10	30.294	45.009	16.478	C.2	1	RES1	0.000	
17	 C11	30.901	47.072	17.285	C.2	1	RES1	0.000	
18	 C12	29.777	47.146	18.121	C.2	1	RES1	0.000	
19	 C13	28.854	46.095	18.083	C.2	1	RES1	0.000	
20	 C14	27.932	47.394	21.051	C.2	1	RES1	0.000	
21	 C15	27.535	48.399	21.912	C.2	1	RES1	0.000	
22	 C16	29.243	47.817	23.510	C.3	1	RES1	0.000	
23	 C17	26.408	49.203	21.616	C.2	1	RES1	0.000	
24	 C18	25.972	50.323	22.567	C.3	1	RES1	0.000	
25	 C19	25.704	48.667	24.285	C.3	1	RES1	0.000	
26	 C50	23.724	49.551	23.192	C.3	1	RES1	0.000	
@<TRIPOS>BOND
1 2 12 ar
2 2 13 1
3 2 14 ar
4 1 3 1
5 3 4 1
6 4 7 ar
7 6 14 2
8 7 10 ar
9 8 26 1
10 10 11 1
11 11 12 ar
12 14 15 ar
13 5 16 ar
14 15 16 ar
15 5 17 ar
16 17 18 ar
17 18 19 ar
18 11 19 ar
19 15 19 ar
20 10 20 ar
21 20 21 ar
22 9 21 1
23 21 23 ar
24 9 22 1
25 4 23 ar
26 23 24 1
27 8 24 1
28 8 25 1
@<TRIPOS>SUBSTRUCTURE
1	RES1	1	GROUP	1 ****	RES
