# created with PyMOL 2.5.2
@<TRIPOS>MOLECULE
BRD9_6HM0_TargetProtein
33 36 1                 
SMALL
USER_CHARGES
@<TRIPOS>ATOM
1	  C1	2.388	0.339	-6.098	C.3	1	RES1	0.000	
2	  N1	9.758	0.272	-5.251	N.2	1	RES1	0.000	
3	  O1	2.589	-0.241	-4.811	O.3	1	RES1	0.000	
4	  C2	3.844	-0.765	-4.461	C.2	1	RES1	0.000	
5	  N2	7.984	-0.051	-9.762	N.2	1	RES1	0.000	
6	  O2	11.056	0.808	-7.123	O.2	1	RES1	0.000	
7	  C3	5.031	-0.356	-5.163	C.2	1	RES1	0.000	
8	  N3	2.159	-1.075	-1.763	N.3	1	RES1	0.000	
9	  O3	5.152	-3.178	-2.054	O.3	1	RES1	0.000	
10	  C4	6.257	-0.894	-4.800	C.2	1	RES1	0.000	
11	  N4	0.929	0.541	0.131	N.3	1	RES1	0.000	
12	  O4	-0.526	3.689	0.893	O.3	1	RES1	0.000	
13	  C5	7.482	-0.466	-5.511	C.2	1	RES1	0.000	
14	  C6	8.542	-0.140	-4.720	C.2	1	RES1	0.000	
15	  C7	10.813	0.576	-4.296	C.3	1	RES1	0.000	
16	  C8	10.015	0.434	-6.608	C.2	1	RES1	0.000	
17	  C9	8.862	0.111	-7.500	C.2	1	RES1	0.000	
18	 C10	8.959	0.221	-8.894	C.2	1	RES1	0.000	
19	 C11	6.796	-0.466	-9.202	C.2	1	RES1	0.000	
20	 C12	6.601	-0.624	-7.841	C.2	1	RES1	0.000	
21	 C13	7.622	-0.311	-6.972	C.2	1	RES1	0.000	
22	 C14	6.313	-1.835	-3.798	C.2	1	RES1	0.000	
23	 C15	5.162	-2.255	-3.105	C.2	1	RES1	0.000	
24	 C16	6.334	-3.276	-1.268	C.3	1	RES1	0.000	
25	 C17	3.890	-1.713	-3.466	C.2	1	RES1	0.000	
26	 C18	2.652	-2.104	-2.703	C.3	1	RES1	0.000	
27	 C19	2.063	-1.644	-0.364	C.3	1	RES1	0.000	
28	 C20	1.089	-0.856	0.546	C.3	1	RES1	0.000	
29	 C21	0.194	1.388	1.110	C.3	1	RES1	0.000	
30	 C22	0.619	2.858	1.218	C.3	1	RES1	0.000	
31	 C23	-0.504	4.885	1.674	C.3	1	RES1	0.000	
32	 C49	0.450	0.639	-1.260	C.3	1	RES1	0.000	
33	 C50	0.864	-0.504	-2.181	C.3	1	RES1	0.000	
@<TRIPOS>BOND
1 2 14 ar
2 2 15 1
3 2 16 ar
4 1 3 1
5 3 4 1
6 4 7 ar
7 6 16 2
8 7 10 ar
9 8 33 1
10 10 13 1
11 11 32 1
12 13 14 ar
13 16 17 ar
14 5 18 ar
15 17 18 ar
16 5 19 ar
17 19 20 ar
18 20 21 ar
19 13 21 ar
20 17 21 ar
21 10 22 ar
22 22 23 ar
23 9 23 1
24 23 25 ar
25 9 24 1
26 4 25 ar
27 25 26 1
28 8 26 1
29 8 27 1
30 27 28 1
31 11 28 1
32 11 29 1
33 29 30 1
34 12 30 1
35 12 31 1
36 32 33 1
@<TRIPOS>SUBSTRUCTURE
1	RES1	1	GROUP	1 ****	RES
