# created with PyMOL 2.5.2
@<TRIPOS>MOLECULE
BRD7_6V1E_TargetProtein
26 28 1                 
SMALL
USER_CHARGES
@<TRIPOS>ATOM
1	  C1	23.727	49.388	18.903	C.3	1	RES1	0.000	
2	  N1	27.167	43.860	17.967	N.2	1	RES1	0.000	
3	  O1	24.485	49.680	20.087	O.3	1	RES1	0.000	
4	  C2	25.609	48.866	20.343	C.2	1	RES1	0.000	
5	  N2	31.223	46.094	16.506	N.2	1	RES1	0.000	
6	  O2	28.628	42.876	16.455	O.2	1	RES1	0.000	
7	  C3	26.039	47.854	19.473	C.2	1	RES1	0.000	
8	  N3	24.891	49.712	23.559	N.3	1	RES1	0.000	
9	  O3	28.057	48.637	23.067	O.3	1	RES1	0.000	
10	  C4	27.169	47.095	19.780	C.2	1	RES1	0.000	
11	  C5	27.639	46.038	18.861	C.2	1	RES1	0.000	
12	  C6	26.865	44.934	18.779	C.2	1	RES1	0.000	
13	  C7	26.221	42.730	17.949	C.3	1	RES1	0.000	
14	  C8	28.299	43.807	17.181	C.2	1	RES1	0.000	
15	  C9	29.210	44.996	17.245	C.2	1	RES1	0.000	
16	 C10	30.361	45.035	16.498	C.2	1	RES1	0.000	
17	 C11	30.906	47.109	17.314	C.2	1	RES1	0.000	
18	 C12	29.737	47.164	18.110	C.2	1	RES1	0.000	
19	 C13	28.876	46.067	18.088	C.2	1	RES1	0.000	
20	 C14	27.858	47.330	20.991	C.2	1	RES1	0.000	
21	 C15	27.428	48.350	21.848	C.2	1	RES1	0.000	
22	 C16	29.117	47.755	23.497	C.3	1	RES1	0.000	
23	 C17	26.298	49.138	21.535	C.2	1	RES1	0.000	
24	 C18	25.818	50.212	22.487	C.3	1	RES1	0.000	
25	 C19	24.571	50.792	24.484	C.3	1	RES1	0.000	
26	 C54	25.441	48.551	24.268	C.3	1	RES1	0.000	
@<TRIPOS>BOND
1 2 12 ar
2 2 13 1
3 2 14 ar
4 1 3 1
5 3 4 1
6 4 7 ar
7 6 14 2
8 7 10 ar
9 8 26 1
10 10 11 1
11 11 12 ar
12 14 15 ar
13 5 16 ar
14 15 16 ar
15 5 17 ar
16 17 18 ar
17 18 19 ar
18 11 19 ar
19 15 19 ar
20 10 20 ar
21 20 21 ar
22 9 21 1
23 21 23 ar
24 9 22 1
25 4 23 ar
26 23 24 1
27 8 24 1
28 8 25 1
@<TRIPOS>SUBSTRUCTURE
1	RES1	1	GROUP	1 ****	RES
