# created with PyMOL 2.5.2
@<TRIPOS>MOLECULE
BRD9_6HM0_TargetProtein
33 36 1                 
SMALL
USER_CHARGES
@<TRIPOS>ATOM
1	  C1	2.379	0.172	-6.115	C.3	1	RES1	0.000	
2	  N1	9.784	0.326	-5.282	N.2	1	RES1	0.000	
3	  O1	2.567	-0.295	-4.767	O.3	1	RES1	0.000	
4	  C2	3.876	-0.733	-4.451	C.2	1	RES1	0.000	
5	  N2	7.917	-0.191	-9.781	N.2	1	RES1	0.000	
6	  O2	11.058	0.745	-7.206	O.2	1	RES1	0.000	
7	  C3	5.034	-0.348	-5.141	C.2	1	RES1	0.000	
8	  N3	2.139	-0.966	-1.766	N.3	1	RES1	0.000	
9	  O3	5.265	-2.944	-1.864	O.3	1	RES1	0.000	
10	  C4	6.278	-0.816	-4.743	C.2	1	RES1	0.000	
11	  N4	-0.058	0.230	-0.175	N.3	1	RES1	0.000	
12	  O4	0.261	3.566	1.019	O.3	1	RES1	0.000	
13	  C5	7.491	-0.402	-5.483	C.2	1	RES1	0.000	
14	  C6	8.571	-0.103	-4.737	C.2	1	RES1	0.000	
15	  C7	10.875	0.623	-4.380	C.3	1	RES1	0.000	
16	  C8	9.997	0.412	-6.685	C.2	1	RES1	0.000	
17	  C9	8.821	0.064	-7.523	C.2	1	RES1	0.000	
18	 C10	8.952	0.122	-8.934	C.2	1	RES1	0.000	
19	 C11	6.755	-0.554	-9.192	C.2	1	RES1	0.000	
20	 C12	6.561	-0.652	-7.824	C.2	1	RES1	0.000	
21	 C13	7.632	-0.352	-6.963	C.2	1	RES1	0.000	
22	 C14	6.400	-1.673	-3.667	C.2	1	RES1	0.000	
23	 C15	5.241	-2.083	-2.968	C.2	1	RES1	0.000	
24	 C16	6.475	-2.957	-1.056	C.3	1	RES1	0.000	
25	 C17	3.950	-1.634	-3.350	C.2	1	RES1	0.000	
26	 C18	2.730	-2.052	-2.597	C.3	1	RES1	0.000	
27	 C19	0.962	-0.333	-2.414	C.3	1	RES1	0.000	
28	 C20	0.327	0.754	-1.524	C.3	1	RES1	0.000	
29	 C21	-0.625	1.317	0.643	C.3	1	RES1	0.000	
30	 C22	0.415	2.191	1.354	C.3	1	RES1	0.000	
31	 C23	0.541	4.425	2.123	C.3	1	RES1	0.000	
32	 C53	1.126	-0.391	0.462	C.3	1	RES1	0.000	
33	 C54	1.738	-1.463	-0.424	C.3	1	RES1	0.000	
@<TRIPOS>BOND
1 2 14 ar
2 2 15 1
3 2 16 ar
4 1 3 1
5 3 4 1
6 4 7 ar
7 6 16 2
8 7 10 ar
9 8 33 1
10 10 13 1
11 11 32 1
12 13 14 ar
13 16 17 ar
14 5 18 ar
15 17 18 ar
16 5 19 ar
17 19 20 ar
18 20 21 ar
19 13 21 ar
20 17 21 ar
21 10 22 ar
22 22 23 ar
23 9 23 1
24 23 25 ar
25 9 24 1
26 4 25 ar
27 25 26 1
28 8 26 1
29 8 27 1
30 27 28 1
31 11 28 1
32 11 29 1
33 29 30 1
34 12 30 1
35 12 31 1
36 32 33 1
@<TRIPOS>SUBSTRUCTURE
1	RES1	1	GROUP	1 ****	RES
