# created with PyMOL 2.5.2
@<TRIPOS>MOLECULE
BRD7_6V1E_TargetProtein
26 28 1                 
SMALL
USER_CHARGES
@<TRIPOS>ATOM
1	  C1	29.160	47.782	23.479	C.3	1	RES1	0.000	
2	  N1	27.157	43.881	17.960	N.2	1	RES1	0.000	
3	  O1	28.102	48.659	23.074	O.3	1	RES1	0.000	
4	  C2	27.446	48.348	21.872	C.2	1	RES1	0.000	
5	  N2	31.219	46.093	16.506	N.2	1	RES1	0.000	
6	  O2	28.605	42.878	16.407	O.2	1	RES1	0.000	
7	  C3	27.879	47.346	20.988	C.2	1	RES1	0.000	
8	  N3	24.873	49.743	23.514	N.3	1	RES1	0.000	
9	  O3	24.483	49.652	20.112	O.3	1	RES1	0.000	
10	  C4	27.174	47.065	19.790	C.2	1	RES1	0.000	
11	  C5	27.631	46.000	18.888	C.2	1	RES1	0.000	
12	  C6	26.851	44.921	18.789	C.2	1	RES1	0.000	
13	  C7	26.224	42.747	17.933	C.3	1	RES1	0.000	
14	  C8	28.307	43.806	17.154	C.2	1	RES1	0.000	
15	  C9	29.184	44.989	17.232	C.2	1	RES1	0.000	
16	 C10	30.362	45.056	16.489	C.2	1	RES1	0.000	
17	 C11	30.909	47.120	17.332	C.2	1	RES1	0.000	
18	 C12	29.772	47.149	18.145	C.2	1	RES1	0.000	
19	 C13	28.867	46.059	18.087	C.2	1	RES1	0.000	
20	 C14	26.051	47.856	19.507	C.2	1	RES1	0.000	
21	 C15	25.608	48.844	20.361	C.2	1	RES1	0.000	
22	 C16	23.727	49.361	18.917	C.3	1	RES1	0.000	
23	 C17	26.297	49.126	21.557	C.2	1	RES1	0.000	
24	 C18	25.824	50.207	22.478	C.3	1	RES1	0.000	
25	 C19	24.541	50.815	24.456	C.3	1	RES1	0.000	
26	 C56	25.384	48.568	24.248	C.3	1	RES1	0.000	
@<TRIPOS>BOND
1 2 12 ar
2 2 13 1
3 2 14 ar
4 1 3 1
5 3 4 1
6 4 7 ar
7 6 14 2
8 7 10 ar
9 8 26 1
10 10 11 1
11 11 12 ar
12 14 15 ar
13 5 16 ar
14 15 16 ar
15 5 17 ar
16 17 18 ar
17 18 19 ar
18 11 19 ar
19 15 19 ar
20 10 20 ar
21 20 21 ar
22 9 21 1
23 21 23 ar
24 9 22 1
25 4 23 ar
26 23 24 1
27 8 24 1
28 8 25 1
@<TRIPOS>SUBSTRUCTURE
1	RES1	1	GROUP	1 ****	RES
