# created with PyMOL 2.5.2
@<TRIPOS>MOLECULE
BRD9_6HM0_TargetProtein
33 36 1                 
SMALL
USER_CHARGES
@<TRIPOS>ATOM
1	  C1	2.570	0.700	-6.014	C.3	1	RES1	0.000	
2	  N1	9.889	0.029	-5.389	N.2	1	RES1	0.000	
3	  O1	2.748	0.134	-4.705	O.3	1	RES1	0.000	
4	  C2	3.952	-0.491	-4.469	C.2	1	RES1	0.000	
5	  N2	8.009	-0.117	-9.849	N.2	1	RES1	0.000	
6	  O2	11.183	0.460	-7.283	O.2	1	RES1	0.000	
7	  C3	5.149	-0.210	-5.173	C.2	1	RES1	0.000	
8	  N3	2.381	-0.816	-1.647	N.3	1	RES1	0.000	
9	  O3	5.079	-3.129	-2.166	O.3	1	RES1	0.000	
10	  C4	6.323	-0.916	-4.860	C.2	1	RES1	0.000	
11	  N4	0.610	0.389	0.367	N.3	1	RES1	0.000	
12	  O4	-1.537	3.046	1.393	O.3	1	RES1	0.000	
13	  C5	7.566	-0.572	-5.612	C.2	1	RES1	0.000	
14	  C6	8.673	-0.342	-4.864	C.2	1	RES1	0.000	
15	  C7	11.007	0.255	-4.458	C.3	1	RES1	0.000	
16	  C8	10.128	0.152	-6.750	C.2	1	RES1	0.000	
17	  C9	8.933	-0.061	-7.634	C.2	1	RES1	0.000	
18	 C10	9.046	0.057	-9.028	C.2	1	RES1	0.000	
19	 C11	6.832	-0.491	-9.318	C.2	1	RES1	0.000	
20	 C12	6.620	-0.644	-7.929	C.2	1	RES1	0.000	
21	 C13	7.699	-0.427	-7.061	C.2	1	RES1	0.000	
22	 C14	6.337	-1.864	-3.867	C.2	1	RES1	0.000	
23	 C15	5.150	-2.155	-3.171	C.2	1	RES1	0.000	
24	 C16	6.258	-3.360	-1.367	C.3	1	RES1	0.000	
25	 C17	3.966	-1.498	-3.481	C.2	1	RES1	0.000	
26	 C18	2.689	-1.784	-2.674	C.3	1	RES1	0.000	
27	 C19	2.081	-1.481	-0.360	C.3	1	RES1	0.000	
28	 C20	1.710	-0.482	0.762	C.3	1	RES1	0.000	
29	 C21	0.143	1.319	1.440	C.3	1	RES1	0.000	
30	 C22	-0.190	2.763	0.995	C.3	1	RES1	0.000	
31	 C23	-1.719	4.416	1.706	C.3	1	RES1	0.000	
32	 C55	0.906	1.072	-0.927	C.3	1	RES1	0.000	
33	 C56	1.250	0.055	-2.025	C.3	1	RES1	0.000	
@<TRIPOS>BOND
1 2 14 ar
2 2 15 1
3 2 16 ar
4 1 3 1
5 3 4 1
6 4 7 ar
7 6 16 2
8 7 10 ar
9 8 33 1
10 10 13 1
11 11 32 1
12 13 14 ar
13 16 17 ar
14 5 18 ar
15 17 18 ar
16 5 19 ar
17 19 20 ar
18 20 21 ar
19 13 21 ar
20 17 21 ar
21 10 22 ar
22 22 23 ar
23 9 23 1
24 23 25 ar
25 9 24 1
26 4 25 ar
27 25 26 1
28 8 26 1
29 8 27 1
30 27 28 1
31 11 28 1
32 11 29 1
33 29 30 1
34 12 30 1
35 12 31 1
36 32 33 1
@<TRIPOS>SUBSTRUCTURE
1	RES1	1	GROUP	1 ****	RES
