# created with PyMOL 2.5.2
@<TRIPOS>MOLECULE
BRD7_6V1E_TargetProtein
26 28 1                 
SMALL
USER_CHARGES
@<TRIPOS>ATOM
1	  C1	29.281	47.822	23.498	C.3	1	RES1	0.000	
2	  N1	27.092	43.933	18.021	N.2	1	RES1	0.000	
3	  O1	28.233	48.721	23.096	O.3	1	RES1	0.000	
4	  C2	27.558	48.396	21.910	C.2	1	RES1	0.000	
5	  N2	31.182	46.040	16.486	N.2	1	RES1	0.000	
6	  O2	28.475	42.887	16.463	O.2	1	RES1	0.000	
7	  C3	27.941	47.385	21.015	C.2	1	RES1	0.000	
8	  N3	25.101	49.859	23.657	N.3	1	RES1	0.000	
9	  O3	24.562	49.750	20.247	O.3	1	RES1	0.000	
10	  C4	27.216	47.153	19.860	C.2	1	RES1	0.000	
11	  C5	27.634	46.071	18.937	C.2	1	RES1	0.000	
12	  C6	26.830	45.005	18.845	C.2	1	RES1	0.000	
13	  C7	26.125	42.796	18.011	C.3	1	RES1	0.000	
14	  C8	28.223	43.838	17.206	C.2	1	RES1	0.000	
15	  C9	29.149	44.978	17.257	C.2	1	RES1	0.000	
16	 C10	30.297	44.991	16.478	C.2	1	RES1	0.000	
17	 C11	30.888	47.107	17.287	C.2	1	RES1	0.000	
18	 C12	29.734	47.161	18.117	C.2	1	RES1	0.000	
19	 C13	28.851	46.071	18.101	C.2	1	RES1	0.000	
20	 C14	26.088	47.916	19.590	C.2	1	RES1	0.000	
21	 C15	25.672	48.944	20.458	C.2	1	RES1	0.000	
22	 C16	23.746	49.480	19.067	C.3	1	RES1	0.000	
23	 C17	26.412	49.203	21.630	C.2	1	RES1	0.000	
24	 C18	25.976	50.313	22.570	C.3	1	RES1	0.000	
25	 C19	23.753	49.600	23.147	C.3	1	RES1	0.000	
26	 C53	25.630	48.670	24.333	C.3	1	RES1	0.000	
@<TRIPOS>BOND
1 2 12 ar
2 2 13 1
3 2 14 ar
4 1 3 1
5 3 4 1
6 4 7 ar
7 6 14 2
8 7 10 ar
9 8 26 1
10 10 11 1
11 11 12 ar
12 14 15 ar
13 5 16 ar
14 15 16 ar
15 5 17 ar
16 17 18 ar
17 18 19 ar
18 11 19 ar
19 15 19 ar
20 10 20 ar
21 20 21 ar
22 9 21 1
23 21 23 ar
24 9 22 1
25 4 23 ar
26 23 24 1
27 8 24 1
28 8 25 1
@<TRIPOS>SUBSTRUCTURE
1	RES1	1	GROUP	1 ****	RES
