# created with PyMOL 2.5.2
@<TRIPOS>MOLECULE
BRD7_6V1E_TargetProtein
26 28 1                 
SMALL
USER_CHARGES
@<TRIPOS>ATOM
1	  C1	23.792	49.409	19.114	C.3	1	RES1	0.000	
2	  N1	27.114	43.894	17.901	N.2	1	RES1	0.000	
3	  O1	24.573	49.653	20.278	O.3	1	RES1	0.000	
4	  C2	25.695	48.837	20.496	C.2	1	RES1	0.000	
5	  N2	31.197	46.085	16.416	N.2	1	RES1	0.000	
6	  O2	28.504	42.922	16.317	O.2	1	RES1	0.000	
7	  C3	26.120	47.831	19.575	C.2	1	RES1	0.000	
8	  N3	25.119	49.594	23.739	N.3	1	RES1	0.000	
9	  O3	28.248	48.541	23.110	O.3	1	RES1	0.000	
10	  C4	27.235	47.061	19.846	C.2	1	RES1	0.000	
11	  C5	27.666	46.027	18.876	C.2	1	RES1	0.000	
12	  C6	26.855	44.945	18.754	C.2	1	RES1	0.000	
13	  C7	26.146	42.802	17.895	C.3	1	RES1	0.000	
14	  C8	28.238	43.846	17.103	C.2	1	RES1	0.000	
15	  C9	29.161	44.989	17.190	C.2	1	RES1	0.000	
16	 C10	30.311	45.050	16.397	C.2	1	RES1	0.000	
17	 C11	30.897	47.081	17.270	C.2	1	RES1	0.000	
18	 C12	29.802	47.122	18.082	C.2	1	RES1	0.000	
19	 C13	28.877	46.059	18.047	C.2	1	RES1	0.000	
20	 C14	27.961	47.270	21.038	C.2	1	RES1	0.000	
21	 C15	27.569	48.260	21.919	C.2	1	RES1	0.000	
22	 C16	29.314	47.654	23.500	C.3	1	RES1	0.000	
23	 C17	26.425	49.069	21.666	C.2	1	RES1	0.000	
24	 C18	25.999	50.122	22.648	C.3	1	RES1	0.000	
25	 C19	25.078	50.580	24.843	C.3	1	RES1	0.000	
26	 C52	23.740	49.368	23.254	C.3	1	RES1	0.000	
@<TRIPOS>BOND
1 2 12 ar
2 2 13 1
3 2 14 ar
4 1 3 1
5 3 4 1
6 4 7 ar
7 6 14 2
8 7 10 ar
9 8 26 1
10 10 11 1
11 11 12 ar
12 14 15 ar
13 5 16 ar
14 15 16 ar
15 5 17 ar
16 17 18 ar
17 18 19 ar
18 11 19 ar
19 15 19 ar
20 10 20 ar
21 20 21 ar
22 9 21 1
23 21 23 ar
24 9 22 1
25 4 23 ar
26 23 24 1
27 8 24 1
28 8 25 1
@<TRIPOS>SUBSTRUCTURE
1	RES1	1	GROUP	1 ****	RES
