# created with PyMOL 2.5.2
@<TRIPOS>MOLECULE
BRD9_6HM0_TargetProtein
33 36 1                 
SMALL
USER_CHARGES
@<TRIPOS>ATOM
1	  C1	6.527	-3.166	-1.188	C.3	1	RES1	0.000	
2	  N1	9.794	0.269	-5.303	N.2	1	RES1	0.000	
3	  O1	5.303	-3.084	-1.933	O.3	1	RES1	0.000	
4	  C2	5.246	-2.174	-3.009	C.2	1	RES1	0.000	
5	  N2	7.939	-0.126	-9.794	N.2	1	RES1	0.000	
6	  O2	11.042	0.745	-7.210	O.2	1	RES1	0.000	
7	  C3	6.406	-1.795	-3.732	C.2	1	RES1	0.000	
8	  N3	2.224	-0.982	-1.699	N.3	1	RES1	0.000	
9	  O3	2.601	-0.253	-4.656	O.3	1	RES1	0.000	
10	  C4	6.297	-0.866	-4.787	C.2	1	RES1	0.000	
11	  N4	0.064	0.339	-0.211	N.3	1	RES1	0.000	
12	  O4	-0.017	3.672	1.052	O.3	1	RES1	0.000	
13	  C5	7.487	-0.453	-5.524	C.2	1	RES1	0.000	
14	  C6	8.581	-0.139	-4.775	C.2	1	RES1	0.000	
15	  C7	10.878	0.563	-4.382	C.3	1	RES1	0.000	
16	  C8	10.018	0.376	-6.661	C.2	1	RES1	0.000	
17	  C9	8.843	0.102	-7.557	C.2	1	RES1	0.000	
18	 C10	8.954	0.171	-8.952	C.2	1	RES1	0.000	
19	 C11	6.765	-0.512	-9.230	C.2	1	RES1	0.000	
20	 C12	6.579	-0.665	-7.875	C.2	1	RES1	0.000	
21	 C13	7.599	-0.349	-6.982	C.2	1	RES1	0.000	
22	 C14	5.033	-0.334	-5.112	C.2	1	RES1	0.000	
23	 C15	3.911	-0.745	-4.392	C.2	1	RES1	0.000	
24	 C16	2.340	0.257	-5.982	C.3	1	RES1	0.000	
25	 C17	4.012	-1.664	-3.327	C.2	1	RES1	0.000	
26	 C18	2.753	-2.067	-2.547	C.3	1	RES1	0.000	
27	 C19	1.064	-0.325	-2.383	C.3	1	RES1	0.000	
28	 C20	0.496	0.795	-1.528	C.3	1	RES1	0.000	
29	 C21	-0.593	1.362	0.609	C.3	1	RES1	0.000	
30	 C22	0.261	2.310	1.410	C.3	1	RES1	0.000	
31	 C23	0.057	4.552	2.137	C.3	1	RES1	0.000	
32	 C51	1.178	-0.342	0.490	C.3	1	RES1	0.000	
33	 C52	1.784	-1.466	-0.370	C.3	1	RES1	0.000	
@<TRIPOS>BOND
1 2 14 ar
2 2 15 1
3 2 16 ar
4 1 3 1
5 3 4 1
6 4 7 ar
7 6 16 2
8 7 10 ar
9 8 33 1
10 10 13 1
11 11 32 1
12 13 14 ar
13 16 17 ar
14 5 18 ar
15 17 18 ar
16 5 19 ar
17 19 20 ar
18 20 21 ar
19 13 21 ar
20 17 21 ar
21 10 22 ar
22 22 23 ar
23 9 23 1
24 23 25 ar
25 9 24 1
26 4 25 ar
27 25 26 1
28 8 26 1
29 8 27 1
30 27 28 1
31 11 28 1
32 11 29 1
33 29 30 1
34 12 30 1
35 12 31 1
36 32 33 1
@<TRIPOS>SUBSTRUCTURE
1	RES1	1	GROUP	1 ****	RES
