# created with PyMOL 2.5.2
@<TRIPOS>MOLECULE
BRD7_6V1E_TargetProtein
26 28 1                 
SMALL
USER_CHARGES
@<TRIPOS>ATOM
1	  C1	23.707	49.365	18.923	C.3	1	RES1	0.000	
2	  N1	27.140	43.855	17.926	N.2	1	RES1	0.000	
3	  O1	24.471	49.654	20.091	O.3	1	RES1	0.000	
4	  C2	25.580	48.840	20.350	C.2	1	RES1	0.000	
5	  N2	31.253	46.091	16.545	N.2	1	RES1	0.000	
6	  O2	28.602	42.896	16.416	O.2	1	RES1	0.000	
7	  C3	26.030	47.820	19.506	C.2	1	RES1	0.000	
8	  N3	24.886	49.725	23.527	N.3	1	RES1	0.000	
9	  O3	28.073	48.673	23.065	O.3	1	RES1	0.000	
10	  C4	27.158	47.086	19.792	C.2	1	RES1	0.000	
11	  C5	27.634	46.030	18.908	C.2	1	RES1	0.000	
12	  C6	26.840	44.934	18.776	C.2	1	RES1	0.000	
13	  C7	26.213	42.731	17.930	C.3	1	RES1	0.000	
14	  C8	28.308	43.823	17.144	C.2	1	RES1	0.000	
15	  C9	29.197	44.998	17.255	C.2	1	RES1	0.000	
16	 C10	30.390	45.044	16.482	C.2	1	RES1	0.000	
17	 C11	30.914	47.100	17.357	C.2	1	RES1	0.000	
18	 C12	29.769	47.152	18.148	C.2	1	RES1	0.000	
19	 C13	28.891	46.056	18.074	C.2	1	RES1	0.000	
20	 C14	27.853	47.331	20.975	C.2	1	RES1	0.000	
21	 C15	27.425	48.350	21.858	C.2	1	RES1	0.000	
22	 C16	29.130	47.782	23.472	C.3	1	RES1	0.000	
23	 C17	26.283	49.136	21.542	C.2	1	RES1	0.000	
24	 C18	25.798	50.216	22.466	C.3	1	RES1	0.000	
25	 C19	24.620	50.815	24.503	C.3	1	RES1	0.000	
26	 C52	25.472	48.574	24.243	C.3	1	RES1	0.000	
@<TRIPOS>BOND
1 2 12 ar
2 2 13 1
3 2 14 ar
4 1 3 1
5 3 4 1
6 4 7 ar
7 6 14 2
8 7 10 ar
9 8 26 1
10 10 11 1
11 11 12 ar
12 14 15 ar
13 5 16 ar
14 15 16 ar
15 5 17 ar
16 17 18 ar
17 18 19 ar
18 11 19 ar
19 15 19 ar
20 10 20 ar
21 20 21 ar
22 9 21 1
23 21 23 ar
24 9 22 1
25 4 23 ar
26 23 24 1
27 8 24 1
28 8 25 1
@<TRIPOS>SUBSTRUCTURE
1	RES1	1	GROUP	1 ****	RES
