# created with PyMOL 2.5.2
@<TRIPOS>MOLECULE
CDK6_2EUF_TargetProtein
33 37 1                 
SMALL
USER_CHARGES
@<TRIPOS>ATOM
1	  C1	34.635	27.714	59.509	C.3	1	RES1	0.000	
2	  N1	31.391	22.938	63.552	N.2	1	RES1	0.000	
3	  O1	32.522	28.704	60.068	O.2	1	RES1	0.000	
4	  C2	33.196	27.711	59.991	C.2	1	RES1	0.000	
5	  N2	30.303	20.992	62.758	N.pl3	1	RES1	0.000	
6	  C3	32.607	26.360	60.338	C.2	1	RES1	0.000	
7	  N3	27.832	16.904	59.723	N.pl3	1	RES1	0.000	
8	  C4	32.637	25.981	61.655	C.2	1	RES1	0.000	
9	  N4	26.733	14.833	58.007	N.3	1	RES1	0.000	
10	  C5	33.275	26.739	62.773	C.3	1	RES1	0.000	
11	  C6	32.009	24.678	61.960	C.2	1	RES1	0.000	
12	  C7	31.964	24.132	63.267	C.2	1	RES1	0.000	
13	  C8	30.895	22.219	62.543	C.2	1	RES1	0.000	
14	  C9	29.691	20.010	61.957	C.2	1	RES1	0.000	
15	  N9	29.472	18.821	62.512	N.2	1	RES1	0.000	
16	 C10	29.282	20.262	60.637	C.2	1	RES1	0.000	
17	 N10	30.894	22.661	61.275	N.2	1	RES1	0.000	
18	 O10	32.063	25.970	58.126	O.2	1	RES1	0.000	
19	 C11	28.705	19.226	59.888	C.2	1	RES1	0.000	
20	 N11	31.470	24.300	59.630	N.2	1	RES1	0.000	
21	 C12	28.461	17.977	60.457	C.2	1	RES1	0.000	
22	 C13	28.521	15.605	59.566	C.3	1	RES1	0.000	
23	 C14	27.574	14.489	59.186	C.3	1	RES1	0.000	
24	 C38	25.949	16.044	58.292	C.3	1	RES1	0.000	
25	 C39	26.838	17.247	58.651	C.3	1	RES1	0.000	
26	 C40	28.886	17.841	61.798	C.2	1	RES1	0.000	
27	 C41	31.470	23.851	60.989	C.2	1	RES1	0.000	
28	 C42	30.874	23.469	58.549	C.3	1	RES1	0.000	
29	 C43	29.968	24.205	57.548	C.3	1	RES1	0.000	
30	 C44	28.671	23.388	57.490	C.3	1	RES1	0.000	
31	 C45	29.048	21.995	57.971	C.3	1	RES1	0.000	
32	 C46	30.032	22.282	59.090	C.3	1	RES1	0.000	
33	 C47	32.031	25.518	59.267	C.2	1	RES1	0.000	
@<TRIPOS>BOND
1 1 4 1
2 2 12 ar
3 2 13 ar
4 3 4 2
5 4 6 1
6 5 13 1
7 5 14 1
8 6 8 ar
9 6 33 ar
10 7 25 1
11 8 10 1
12 8 11 ar
13 11 12 ar
14 14 15 ar
15 14 16 ar
16 16 19 ar
17 13 17 ar
18 17 27 ar
19 18 33 2
20 19 21 ar
21 20 27 ar
22 20 28 1
23 20 33 ar
24 7 21 1
25 21 26 ar
26 7 22 1
27 22 23 1
28 9 23 1
29 9 24 1
30 24 25 1
31 15 26 ar
32 11 27 ar
33 28 29 1
34 28 32 1
35 29 30 1
36 30 31 1
37 31 32 1
@<TRIPOS>SUBSTRUCTURE
1	RES1	1	GROUP	1 ****	RES
