# created with PyMOL 2.5.2
@<TRIPOS>MOLECULE
BRD9_6HM0_TargetProtein
34 37 1                 
SMALL
USER_CHARGES
@<TRIPOS>ATOM
1	  C1	2.632	0.877	-6.011	C.3	1	RES1	0.000	
2	  N1	9.986	-0.155	-5.477	N.2	1	RES1	0.000	
3	  O1	2.828	0.361	-4.704	O.3	1	RES1	0.000	
4	  C2	4.037	-0.337	-4.474	C.2	1	RES1	0.000	
5	  N2	8.009	-0.243	-9.908	N.2	1	RES1	0.000	
6	  O2	11.270	0.147	-7.400	O.2	1	RES1	0.000	
7	  C3	5.216	-0.088	-5.172	C.2	1	RES1	0.000	
8	  N3	2.441	-0.596	-1.596	N.3	1	RES1	0.000	
9	  O3	5.071	-2.986	-2.134	O.3	1	RES1	0.000	
10	  C4	6.386	-0.807	-4.888	C.2	1	RES1	0.000	
11	  N4	0.864	0.687	0.451	N.pl3	1	RES1	0.000	
12	  O4	-0.673	0.165	2.096	O.2	1	RES1	0.000	
13	  C5	7.613	-0.564	-5.636	C.2	1	RES1	0.000	
14	  O5	-1.917	2.687	1.181	O.3	1	RES1	0.000	
15	  C6	8.732	-0.415	-4.904	C.2	1	RES1	0.000	
16	  C7	11.112	-0.033	-4.584	C.3	1	RES1	0.000	
17	  C8	10.194	-0.080	-6.870	C.2	1	RES1	0.000	
18	  C9	8.980	-0.215	-7.708	C.2	1	RES1	0.000	
19	 C10	9.065	-0.143	-9.095	C.2	1	RES1	0.000	
20	 C11	6.809	-0.495	-9.329	C.2	1	RES1	0.000	
21	 C12	6.609	-0.584	-7.954	C.2	1	RES1	0.000	
22	 C13	7.725	-0.455	-7.120	C.2	1	RES1	0.000	
23	 C14	6.347	-1.768	-3.875	C.2	1	RES1	0.000	
24	 C15	5.174	-2.026	-3.163	C.2	1	RES1	0.000	
25	 C16	6.264	-3.265	-1.400	C.3	1	RES1	0.000	
26	 C17	3.985	-1.308	-3.443	C.2	1	RES1	0.000	
27	 C18	2.717	-1.602	-2.649	C.3	1	RES1	0.000	
28	 C19	2.129	-1.289	-0.333	C.3	1	RES1	0.000	
29	 C20	1.887	-0.277	0.786	C.3	1	RES1	0.000	
30	 C21	-0.140	1.018	1.377	C.2	1	RES1	0.000	
31	 C22	-0.537	2.481	1.494	C.3	1	RES1	0.000	
32	 C23	-2.455	3.816	1.924	C.3	1	RES1	0.000	
33	 C51	1.076	1.329	-0.842	C.3	1	RES1	0.000	
34	 C52	1.335	0.331	-1.957	C.3	1	RES1	0.000	
@<TRIPOS>BOND
1 2 15 ar
2 2 16 1
3 2 17 ar
4 1 3 1
5 3 4 1
6 4 7 ar
7 6 17 2
8 7 10 ar
9 8 34 1
10 10 13 1
11 11 33 1
12 13 15 ar
13 17 18 ar
14 5 19 ar
15 18 19 ar
16 5 20 ar
17 20 21 ar
18 21 22 ar
19 13 22 ar
20 18 22 ar
21 10 23 ar
22 23 24 ar
23 9 24 1
24 24 26 ar
25 9 25 1
26 4 26 ar
27 26 27 1
28 8 27 1
29 8 28 1
30 28 29 1
31 11 29 1
32 11 30 1
33 12 30 2
34 30 31 1
35 14 31 1
36 14 32 1
37 33 34 1
@<TRIPOS>SUBSTRUCTURE
1	RES1	1	GROUP	1 ****	RES
