# created with PyMOL 2.5.2
@<TRIPOS>MOLECULE
BRD7_6V1E_TargetProtein
26 28 1                 
SMALL
USER_CHARGES
@<TRIPOS>ATOM
1	  C1	29.114	47.776	23.476	C.3	1	RES1	0.000	
2	  N1	27.144	43.837	17.974	N.2	1	RES1	0.000	
3	  O1	28.060	48.644	23.098	O.3	1	RES1	0.000	
4	  C2	27.417	48.349	21.845	C.2	1	RES1	0.000	
5	  N2	31.227	46.100	16.518	N.2	1	RES1	0.000	
6	  O2	28.627	42.873	16.444	O.2	1	RES1	0.000	
7	  C3	27.848	47.319	20.989	C.2	1	RES1	0.000	
8	  N3	24.892	49.717	23.554	N.3	1	RES1	0.000	
9	  O3	24.484	49.702	20.078	O.3	1	RES1	0.000	
10	  C4	27.182	47.102	19.785	C.2	1	RES1	0.000	
11	  C5	27.628	46.025	18.889	C.2	1	RES1	0.000	
12	  C6	26.864	44.939	18.778	C.2	1	RES1	0.000	
13	  C7	26.225	42.717	17.939	C.3	1	RES1	0.000	
14	  C8	28.313	43.801	17.175	C.2	1	RES1	0.000	
15	  C9	29.211	44.992	17.257	C.2	1	RES1	0.000	
16	 C10	30.373	45.043	16.520	C.2	1	RES1	0.000	
17	 C11	30.900	47.108	17.302	C.2	1	RES1	0.000	
18	 C12	29.747	47.171	18.099	C.2	1	RES1	0.000	
19	 C13	28.871	46.047	18.057	C.2	1	RES1	0.000	
20	 C14	26.047	47.870	19.475	C.2	1	RES1	0.000	
21	 C15	25.600	48.877	20.344	C.2	1	RES1	0.000	
22	 C16	23.733	49.414	18.880	C.3	1	RES1	0.000	
23	 C17	26.284	49.110	21.553	C.2	1	RES1	0.000	
24	 C18	25.838	50.222	22.487	C.3	1	RES1	0.000	
25	 C19	24.534	50.761	24.546	C.3	1	RES1	0.000	
26	 C54	25.472	48.555	24.214	C.3	1	RES1	0.000	
@<TRIPOS>BOND
1 2 12 ar
2 2 13 1
3 2 14 ar
4 1 3 1
5 3 4 1
6 4 7 ar
7 6 14 2
8 7 10 ar
9 8 26 1
10 10 11 1
11 11 12 ar
12 14 15 ar
13 5 16 ar
14 15 16 ar
15 5 17 ar
16 17 18 ar
17 18 19 ar
18 11 19 ar
19 15 19 ar
20 10 20 ar
21 20 21 ar
22 9 21 1
23 21 23 ar
24 9 22 1
25 4 23 ar
26 23 24 1
27 8 24 1
28 8 25 1
@<TRIPOS>SUBSTRUCTURE
1	RES1	1	GROUP	1 ****	RES
