# created with PyMOL 2.5.2
@<TRIPOS>MOLECULE
BRD9_6HM0_TargetProtein
33 36 1                 
SMALL
USER_CHARGES
@<TRIPOS>ATOM
1	  C1	6.346	-3.408	-1.413	C.3	1	RES1	0.000	
2	  N1	9.935	-0.039	-5.407	N.2	1	RES1	0.000	
3	  O1	5.152	-3.177	-2.175	O.3	1	RES1	0.000	
4	  C2	5.196	-2.175	-3.165	C.2	1	RES1	0.000	
5	  N2	7.945	-0.128	-9.849	N.2	1	RES1	0.000	
6	  O2	11.205	0.350	-7.342	O.2	1	RES1	0.000	
7	  C3	6.376	-1.844	-3.846	C.2	1	RES1	0.000	
8	  N3	2.389	-0.862	-1.611	N.3	1	RES1	0.000	
9	  O3	2.738	0.160	-4.608	O.3	1	RES1	0.000	
10	  C4	6.351	-0.809	-4.817	C.2	1	RES1	0.000	
11	  N4	0.555	0.389	0.301	N.3	1	RES1	0.000	
12	  O4	-1.600	3.048	1.331	O.3	1	RES1	0.000	
13	  C5	7.572	-0.463	-5.594	C.2	1	RES1	0.000	
14	  C6	8.715	-0.320	-4.855	C.2	1	RES1	0.000	
15	  C7	11.078	0.151	-4.505	C.3	1	RES1	0.000	
16	  C8	10.126	0.098	-6.801	C.2	1	RES1	0.000	
17	  C9	8.921	-0.092	-7.648	C.2	1	RES1	0.000	
18	 C10	8.986	0.014	-9.031	C.2	1	RES1	0.000	
19	 C11	6.753	-0.402	-9.267	C.2	1	RES1	0.000	
20	 C12	6.572	-0.526	-7.910	C.2	1	RES1	0.000	
21	 C13	7.683	-0.382	-7.058	C.2	1	RES1	0.000	
22	 C14	5.182	-0.138	-5.071	C.2	1	RES1	0.000	
23	 C15	3.989	-0.460	-4.403	C.2	1	RES1	0.000	
24	 C16	2.549	0.745	-5.918	C.3	1	RES1	0.000	
25	 C17	4.008	-1.502	-3.425	C.2	1	RES1	0.000	
26	 C18	2.719	-1.816	-2.665	C.3	1	RES1	0.000	
27	 C19	2.059	-1.500	-0.338	C.3	1	RES1	0.000	
28	 C20	1.667	-0.496	0.750	C.3	1	RES1	0.000	
29	 C21	0.087	1.332	1.363	C.3	1	RES1	0.000	
30	 C22	-0.228	2.763	0.925	C.3	1	RES1	0.000	
31	 C23	-1.732	4.450	1.649	C.3	1	RES1	0.000	
32	 C53	0.884	1.041	-0.965	C.3	1	RES1	0.000	
33	 C54	1.241	0.028	-2.043	C.3	1	RES1	0.000	
@<TRIPOS>BOND
1 2 14 ar
2 2 15 1
3 2 16 ar
4 1 3 1
5 3 4 1
6 4 7 ar
7 6 16 2
8 7 10 ar
9 8 33 1
10 10 13 1
11 11 32 1
12 13 14 ar
13 16 17 ar
14 5 18 ar
15 17 18 ar
16 5 19 ar
17 19 20 ar
18 20 21 ar
19 13 21 ar
20 17 21 ar
21 10 22 ar
22 22 23 ar
23 9 23 1
24 23 25 ar
25 9 24 1
26 4 25 ar
27 25 26 1
28 8 26 1
29 8 27 1
30 27 28 1
31 11 28 1
32 11 29 1
33 29 30 1
34 12 30 1
35 12 31 1
36 32 33 1
@<TRIPOS>SUBSTRUCTURE
1	RES1	1	GROUP	1 ****	RES
