# created with PyMOL 2.5.2
@<TRIPOS>MOLECULE
BRD7_6V1E_TargetProtein
26 28 1                 
SMALL
USER_CHARGES
@<TRIPOS>ATOM
1	  C1	23.797	49.402	19.115	C.3	1	RES1	0.000	
2	  N1	27.105	43.877	17.894	N.2	1	RES1	0.000	
3	  O1	24.593	49.644	20.285	O.3	1	RES1	0.000	
4	  C2	25.675	48.837	20.493	C.2	1	RES1	0.000	
5	  N2	31.194	46.082	16.435	N.2	1	RES1	0.000	
6	  O2	28.501	42.914	16.309	O.2	1	RES1	0.000	
7	  C3	26.108	47.850	19.582	C.2	1	RES1	0.000	
8	  N3	25.113	49.624	23.737	N.3	1	RES1	0.000	
9	  O3	28.260	48.548	23.125	O.3	1	RES1	0.000	
10	  C4	27.232	47.070	19.832	C.2	1	RES1	0.000	
11	  C5	27.643	46.029	18.889	C.2	1	RES1	0.000	
12	  C6	26.846	44.950	18.775	C.2	1	RES1	0.000	
13	  C7	26.175	42.783	17.881	C.3	1	RES1	0.000	
14	  C8	28.236	43.821	17.079	C.2	1	RES1	0.000	
15	  C9	29.183	45.001	17.178	C.2	1	RES1	0.000	
16	 C10	30.325	45.047	16.403	C.2	1	RES1	0.000	
17	 C11	30.916	47.083	17.286	C.2	1	RES1	0.000	
18	 C12	29.768	47.119	18.093	C.2	1	RES1	0.000	
19	 C13	28.858	46.061	18.040	C.2	1	RES1	0.000	
20	 C14	27.971	47.291	21.007	C.2	1	RES1	0.000	
21	 C15	27.569	48.264	21.906	C.2	1	RES1	0.000	
22	 C16	29.315	47.659	23.474	C.3	1	RES1	0.000	
23	 C17	26.434	49.058	21.672	C.2	1	RES1	0.000	
24	 C18	25.987	50.132	22.655	C.3	1	RES1	0.000	
25	 C19	25.080	50.531	24.907	C.3	1	RES1	0.000	
26	 C55	23.754	49.396	23.224	C.3	1	RES1	0.000	
@<TRIPOS>BOND
1 2 12 ar
2 2 13 1
3 2 14 ar
4 1 3 1
5 3 4 1
6 4 7 ar
7 6 14 2
8 7 10 ar
9 8 26 1
10 10 11 1
11 11 12 ar
12 14 15 ar
13 5 16 ar
14 15 16 ar
15 5 17 ar
16 17 18 ar
17 18 19 ar
18 11 19 ar
19 15 19 ar
20 10 20 ar
21 20 21 ar
22 9 21 1
23 21 23 ar
24 9 22 1
25 4 23 ar
26 23 24 1
27 8 24 1
28 8 25 1
@<TRIPOS>SUBSTRUCTURE
1	RES1	1	GROUP	1 ****	RES
