# created with PyMOL 2.5.2
@<TRIPOS>MOLECULE
BRD9_6HM0_TargetProtein
33 36 1                 
SMALL
USER_CHARGES
@<TRIPOS>ATOM
1	  C1	6.467	-3.090	-1.124	C.3	1	RES1	0.000	
2	  N1	9.830	0.261	-5.330	N.2	1	RES1	0.000	
3	  O1	5.267	-3.009	-1.908	O.3	1	RES1	0.000	
4	  C2	5.264	-2.103	-2.985	C.2	1	RES1	0.000	
5	  N2	7.940	-0.187	-9.798	N.2	1	RES1	0.000	
6	  O2	11.090	0.669	-7.243	O.2	1	RES1	0.000	
7	  C3	6.402	-1.716	-3.702	C.2	1	RES1	0.000	
8	  N3	2.188	-0.942	-1.742	N.3	1	RES1	0.000	
9	  O3	2.629	-0.225	-4.721	O.3	1	RES1	0.000	
10	  C4	6.311	-0.844	-4.772	C.2	1	RES1	0.000	
11	  N4	0.043	0.305	-0.151	N.3	1	RES1	0.000	
12	  O4	-0.098	3.585	1.121	O.3	1	RES1	0.000	
13	  C5	7.535	-0.445	-5.520	C.2	1	RES1	0.000	
14	  C6	8.610	-0.146	-4.789	C.2	1	RES1	0.000	
15	  C7	10.906	0.566	-4.430	C.3	1	RES1	0.000	
16	  C8	10.029	0.352	-6.718	C.2	1	RES1	0.000	
17	  C9	8.885	0.034	-7.570	C.2	1	RES1	0.000	
18	 C10	8.968	0.088	-8.964	C.2	1	RES1	0.000	
19	 C11	6.772	-0.558	-9.251	C.2	1	RES1	0.000	
20	 C12	6.578	-0.646	-7.851	C.2	1	RES1	0.000	
21	 C13	7.659	-0.361	-7.006	C.2	1	RES1	0.000	
22	 C14	5.083	-0.296	-5.138	C.2	1	RES1	0.000	
23	 C15	3.902	-0.701	-4.455	C.2	1	RES1	0.000	
24	 C16	2.392	0.232	-6.074	C.3	1	RES1	0.000	
25	 C17	3.989	-1.584	-3.346	C.2	1	RES1	0.000	
26	 C18	2.762	-2.010	-2.591	C.3	1	RES1	0.000	
27	 C19	1.011	-0.283	-2.384	C.3	1	RES1	0.000	
28	 C20	0.387	0.820	-1.481	C.3	1	RES1	0.000	
29	 C21	-0.639	1.269	0.722	C.3	1	RES1	0.000	
30	 C22	0.269	2.268	1.505	C.3	1	RES1	0.000	
31	 C23	0.005	4.493	2.226	C.3	1	RES1	0.000	
32	 C54	1.193	-0.339	0.467	C.3	1	RES1	0.000	
33	 C55	1.818	-1.453	-0.405	C.3	1	RES1	0.000	
@<TRIPOS>BOND
1 2 14 ar
2 2 15 1
3 2 16 ar
4 1 3 1
5 3 4 1
6 4 7 ar
7 6 16 2
8 7 10 ar
9 8 33 1
10 10 13 1
11 11 32 1
12 13 14 ar
13 16 17 ar
14 5 18 ar
15 17 18 ar
16 5 19 ar
17 19 20 ar
18 20 21 ar
19 13 21 ar
20 17 21 ar
21 10 22 ar
22 22 23 ar
23 9 23 1
24 23 25 ar
25 9 24 1
26 4 25 ar
27 25 26 1
28 8 26 1
29 8 27 1
30 27 28 1
31 11 28 1
32 11 29 1
33 29 30 1
34 12 30 1
35 12 31 1
36 32 33 1
@<TRIPOS>SUBSTRUCTURE
1	RES1	1	GROUP	1 ****	RES
