# created with PyMOL 2.5.2
@<TRIPOS>MOLECULE
BRD7_6V1E_TargetProtein
26 28 1                 
SMALL
USER_CHARGES
@<TRIPOS>ATOM
1	  C1	23.804	49.415	19.103	C.3	1	RES1	0.000	
2	  N1	27.107	43.882	17.920	N.2	1	RES1	0.000	
3	  O1	24.576	49.648	20.267	O.3	1	RES1	0.000	
4	  C2	25.700	48.834	20.475	C.2	1	RES1	0.000	
5	  N2	31.197	46.089	16.430	N.2	1	RES1	0.000	
6	  O2	28.519	42.915	16.311	O.2	1	RES1	0.000	
7	  C3	26.104	47.836	19.578	C.2	1	RES1	0.000	
8	  N3	25.114	49.628	23.718	N.3	1	RES1	0.000	
9	  O3	28.249	48.536	23.120	O.3	1	RES1	0.000	
10	  C4	27.217	47.050	19.830	C.2	1	RES1	0.000	
11	  C5	27.668	46.020	18.866	C.2	1	RES1	0.000	
12	  C6	26.856	44.950	18.773	C.2	1	RES1	0.000	
13	  C7	26.148	42.768	17.890	C.3	1	RES1	0.000	
14	  C8	28.237	43.845	17.095	C.2	1	RES1	0.000	
15	  C9	29.155	45.003	17.191	C.2	1	RES1	0.000	
16	 C10	30.313	45.059	16.382	C.2	1	RES1	0.000	
17	 C11	30.892	47.093	17.286	C.2	1	RES1	0.000	
18	 C12	29.775	47.141	18.089	C.2	1	RES1	0.000	
19	 C13	28.884	46.058	18.046	C.2	1	RES1	0.000	
20	 C14	27.969	47.271	21.015	C.2	1	RES1	0.000	
21	 C15	27.575	48.255	21.939	C.2	1	RES1	0.000	
22	 C16	29.305	47.641	23.500	C.3	1	RES1	0.000	
23	 C17	26.426	49.064	21.666	C.2	1	RES1	0.000	
24	 C18	25.991	50.119	22.650	C.3	1	RES1	0.000	
25	 C19	25.120	50.540	24.883	C.3	1	RES1	0.000	
26	 C52	23.734	49.409	23.252	C.3	1	RES1	0.000	
@<TRIPOS>BOND
1 2 12 ar
2 2 13 1
3 2 14 ar
4 1 3 1
5 3 4 1
6 4 7 ar
7 6 14 2
8 7 10 ar
9 8 26 1
10 10 11 1
11 11 12 ar
12 14 15 ar
13 5 16 ar
14 15 16 ar
15 5 17 ar
16 17 18 ar
17 18 19 ar
18 11 19 ar
19 15 19 ar
20 10 20 ar
21 20 21 ar
22 9 21 1
23 21 23 ar
24 9 22 1
25 4 23 ar
26 23 24 1
27 8 24 1
28 8 25 1
@<TRIPOS>SUBSTRUCTURE
1	RES1	1	GROUP	1 ****	RES
