# created with PyMOL 2.5.2
@<TRIPOS>MOLECULE
BRD9_6HM0_TargetProtein
33 36 1                 
SMALL
USER_CHARGES
@<TRIPOS>ATOM
1	  C1	2.382	0.169	-6.121	C.3	1	RES1	0.000	
2	  N1	9.806	0.300	-5.303	N.2	1	RES1	0.000	
3	  O1	2.571	-0.290	-4.785	O.3	1	RES1	0.000	
4	  C2	3.913	-0.729	-4.428	C.2	1	RES1	0.000	
5	  N2	7.914	-0.172	-9.767	N.2	1	RES1	0.000	
6	  O2	11.056	0.729	-7.226	O.2	1	RES1	0.000	
7	  C3	5.048	-0.335	-5.121	C.2	1	RES1	0.000	
8	  N3	2.162	-0.956	-1.762	N.3	1	RES1	0.000	
9	  O3	5.292	-2.942	-1.844	O.3	1	RES1	0.000	
10	  C4	6.291	-0.808	-4.744	C.2	1	RES1	0.000	
11	  N4	-0.081	0.253	-0.199	N.3	1	RES1	0.000	
12	  O4	0.233	3.543	1.047	O.3	1	RES1	0.000	
13	  C5	7.495	-0.397	-5.494	C.2	1	RES1	0.000	
14	  C6	8.573	-0.102	-4.766	C.2	1	RES1	0.000	
15	  C7	10.875	0.613	-4.403	C.3	1	RES1	0.000	
16	  C8	10.003	0.389	-6.697	C.2	1	RES1	0.000	
17	  C9	8.830	0.049	-7.549	C.2	1	RES1	0.000	
18	 C10	8.944	0.109	-8.925	C.2	1	RES1	0.000	
19	 C11	6.753	-0.558	-9.210	C.2	1	RES1	0.000	
20	 C12	6.552	-0.652	-7.837	C.2	1	RES1	0.000	
21	 C13	7.626	-0.345	-6.945	C.2	1	RES1	0.000	
22	 C14	6.396	-1.681	-3.646	C.2	1	RES1	0.000	
23	 C15	5.249	-2.068	-2.942	C.2	1	RES1	0.000	
24	 C16	6.451	-2.980	-1.044	C.3	1	RES1	0.000	
25	 C17	3.985	-1.613	-3.336	C.2	1	RES1	0.000	
26	 C18	2.731	-2.032	-2.565	C.3	1	RES1	0.000	
27	 C19	0.984	-0.317	-2.425	C.3	1	RES1	0.000	
28	 C20	0.347	0.782	-1.544	C.3	1	RES1	0.000	
29	 C21	-0.636	1.330	0.638	C.3	1	RES1	0.000	
30	 C22	0.395	2.155	1.381	C.3	1	RES1	0.000	
31	 C23	0.492	4.386	2.152	C.3	1	RES1	0.000	
32	 C51	1.091	-0.378	0.436	C.3	1	RES1	0.000	
33	 C52	1.719	-1.456	-0.435	C.3	1	RES1	0.000	
@<TRIPOS>BOND
1 2 14 ar
2 2 15 1
3 2 16 ar
4 1 3 1
5 3 4 1
6 4 7 ar
7 6 16 2
8 7 10 ar
9 8 33 1
10 10 13 1
11 11 32 1
12 13 14 ar
13 16 17 ar
14 5 18 ar
15 17 18 ar
16 5 19 ar
17 19 20 ar
18 20 21 ar
19 13 21 ar
20 17 21 ar
21 10 22 ar
22 22 23 ar
23 9 23 1
24 23 25 ar
25 9 24 1
26 4 25 ar
27 25 26 1
28 8 26 1
29 8 27 1
30 27 28 1
31 11 28 1
32 11 29 1
33 29 30 1
34 12 30 1
35 12 31 1
36 32 33 1
@<TRIPOS>SUBSTRUCTURE
1	RES1	1	GROUP	1 ****	RES
