# created with PyMOL 2.5.2
@<TRIPOS>MOLECULE
BRD7_6V1E_TargetProtein
26 28 1                 
SMALL
USER_CHARGES
@<TRIPOS>ATOM
1	  C1	23.781	49.410	19.112	C.3	1	RES1	0.000	
2	  N1	27.101	43.874	17.921	N.2	1	RES1	0.000	
3	  O1	24.587	49.648	20.288	O.3	1	RES1	0.000	
4	  C2	25.693	48.807	20.483	C.2	1	RES1	0.000	
5	  N2	31.177	46.066	16.417	N.2	1	RES1	0.000	
6	  O2	28.498	42.924	16.308	O.2	1	RES1	0.000	
7	  C3	26.104	47.815	19.585	C.2	1	RES1	0.000	
8	  N3	25.116	49.635	23.710	N.3	1	RES1	0.000	
9	  O3	28.242	48.557	23.139	O.3	1	RES1	0.000	
10	  C4	27.245	47.055	19.864	C.2	1	RES1	0.000	
11	  C5	27.667	46.023	18.902	C.2	1	RES1	0.000	
12	  C6	26.863	44.968	18.765	C.2	1	RES1	0.000	
13	  C7	26.150	42.804	17.887	C.3	1	RES1	0.000	
14	  C8	28.249	43.831	17.062	C.2	1	RES1	0.000	
15	  C9	29.167	45.001	17.160	C.2	1	RES1	0.000	
16	 C10	30.302	45.052	16.384	C.2	1	RES1	0.000	
17	 C11	30.925	47.081	17.261	C.2	1	RES1	0.000	
18	 C12	29.790	47.140	18.101	C.2	1	RES1	0.000	
19	 C13	28.891	46.063	18.056	C.2	1	RES1	0.000	
20	 C14	27.982	47.290	21.036	C.2	1	RES1	0.000	
21	 C15	27.547	48.279	21.932	C.2	1	RES1	0.000	
22	 C16	29.310	47.645	23.493	C.3	1	RES1	0.000	
23	 C17	26.431	49.042	21.657	C.2	1	RES1	0.000	
24	 C18	25.973	50.119	22.643	C.3	1	RES1	0.000	
25	 C19	25.079	50.548	24.881	C.3	1	RES1	0.000	
26	 C58	23.765	49.398	23.231	C.3	1	RES1	0.000	
@<TRIPOS>BOND
1 2 12 ar
2 2 13 1
3 2 14 ar
4 1 3 1
5 3 4 1
6 4 7 ar
7 6 14 2
8 7 10 ar
9 8 26 1
10 10 11 1
11 11 12 ar
12 14 15 ar
13 5 16 ar
14 15 16 ar
15 5 17 ar
16 17 18 ar
17 18 19 ar
18 11 19 ar
19 15 19 ar
20 10 20 ar
21 20 21 ar
22 9 21 1
23 21 23 ar
24 9 22 1
25 4 23 ar
26 23 24 1
27 8 24 1
28 8 25 1
@<TRIPOS>SUBSTRUCTURE
1	RES1	1	GROUP	1 ****	RES
