# created with PyMOL 2.5.2
@<TRIPOS>MOLECULE
BRD9_6HM0_TargetProtein
33 36 1                 
SMALL
USER_CHARGES
@<TRIPOS>ATOM
1	  C1	6.310	-3.350	-1.389	C.3	1	RES1	0.000	
2	  N1	9.937	-0.023	-5.425	N.2	1	RES1	0.000	
3	  O1	5.102	-3.119	-2.157	O.3	1	RES1	0.000	
4	  C2	5.177	-2.140	-3.157	C.2	1	RES1	0.000	
5	  N2	8.012	-0.165	-9.877	N.2	1	RES1	0.000	
6	  O2	11.218	0.381	-7.318	O.2	1	RES1	0.000	
7	  C3	6.371	-1.822	-3.860	C.2	1	RES1	0.000	
8	  N3	2.392	-0.773	-1.625	N.3	1	RES1	0.000	
9	  O3	2.752	0.183	-4.662	O.3	1	RES1	0.000	
10	  C4	6.361	-0.845	-4.868	C.2	1	RES1	0.000	
11	  N4	0.562	0.380	0.361	N.3	1	RES1	0.000	
12	  O4	-1.625	3.036	1.404	O.3	1	RES1	0.000	
13	  C5	7.605	-0.535	-5.604	C.2	1	RES1	0.000	
14	  C6	8.691	-0.342	-4.884	C.2	1	RES1	0.000	
15	  C7	11.058	0.163	-4.480	C.3	1	RES1	0.000	
16	  C8	10.138	0.087	-6.798	C.2	1	RES1	0.000	
17	  C9	8.949	-0.105	-7.657	C.2	1	RES1	0.000	
18	 C10	9.044	0.016	-9.030	C.2	1	RES1	0.000	
19	 C11	6.801	-0.466	-9.318	C.2	1	RES1	0.000	
20	 C12	6.596	-0.586	-7.933	C.2	1	RES1	0.000	
21	 C13	7.712	-0.399	-7.081	C.2	1	RES1	0.000	
22	 C14	5.158	-0.160	-5.135	C.2	1	RES1	0.000	
23	 C15	3.965	-0.465	-4.454	C.2	1	RES1	0.000	
24	 C16	2.528	0.731	-6.002	C.3	1	RES1	0.000	
25	 C17	4.002	-1.450	-3.448	C.2	1	RES1	0.000	
26	 C18	2.720	-1.779	-2.677	C.3	1	RES1	0.000	
27	 C19	2.091	-1.489	-0.344	C.3	1	RES1	0.000	
28	 C20	1.713	-0.491	0.760	C.3	1	RES1	0.000	
29	 C21	0.083	1.288	1.428	C.3	1	RES1	0.000	
30	 C22	-0.281	2.705	1.025	C.3	1	RES1	0.000	
31	 C23	-1.784	4.414	1.718	C.3	1	RES1	0.000	
32	 C57	0.858	1.056	-0.907	C.3	1	RES1	0.000	
33	 C58	1.236	0.073	-2.018	C.3	1	RES1	0.000	
@<TRIPOS>BOND
1 2 14 ar
2 2 15 1
3 2 16 ar
4 1 3 1
5 3 4 1
6 4 7 ar
7 6 16 2
8 7 10 ar
9 8 33 1
10 10 13 1
11 11 32 1
12 13 14 ar
13 16 17 ar
14 5 18 ar
15 17 18 ar
16 5 19 ar
17 19 20 ar
18 20 21 ar
19 13 21 ar
20 17 21 ar
21 10 22 ar
22 22 23 ar
23 9 23 1
24 23 25 ar
25 9 24 1
26 4 25 ar
27 25 26 1
28 8 26 1
29 8 27 1
30 27 28 1
31 11 28 1
32 11 29 1
33 29 30 1
34 12 30 1
35 12 31 1
36 32 33 1
@<TRIPOS>SUBSTRUCTURE
1	RES1	1	GROUP	1 ****	RES
