# created with PyMOL 2.5.2
@<TRIPOS>MOLECULE
BRD7_6V1E_TargetProtein
26 28 1                 
SMALL
USER_CHARGES
@<TRIPOS>ATOM
1	  C1	23.718	49.383	18.904	C.3	1	RES1	0.000	
2	  N1	27.144	43.861	17.958	N.2	1	RES1	0.000	
3	  O1	24.474	49.666	20.092	O.3	1	RES1	0.000	
4	  C2	25.600	48.847	20.357	C.2	1	RES1	0.000	
5	  N2	31.239	46.061	16.534	N.2	1	RES1	0.000	
6	  O2	28.612	42.887	16.409	O.2	1	RES1	0.000	
7	  C3	26.045	47.848	19.490	C.2	1	RES1	0.000	
8	  N3	24.883	49.711	23.535	N.3	1	RES1	0.000	
9	  O3	28.069	48.673	23.056	O.3	1	RES1	0.000	
10	  C4	27.158	47.081	19.799	C.2	1	RES1	0.000	
11	  C5	27.644	46.015	18.891	C.2	1	RES1	0.000	
12	  C6	26.869	44.930	18.768	C.2	1	RES1	0.000	
13	  C7	26.198	42.718	17.914	C.3	1	RES1	0.000	
14	  C8	28.299	43.802	17.167	C.2	1	RES1	0.000	
15	  C9	29.195	44.982	17.250	C.2	1	RES1	0.000	
16	 C10	30.373	45.053	16.484	C.2	1	RES1	0.000	
17	 C11	30.910	47.118	17.336	C.2	1	RES1	0.000	
18	 C12	29.764	47.163	18.147	C.2	1	RES1	0.000	
19	 C13	28.874	46.078	18.086	C.2	1	RES1	0.000	
20	 C14	27.861	47.334	20.998	C.2	1	RES1	0.000	
21	 C15	27.424	48.372	21.849	C.2	1	RES1	0.000	
22	 C16	29.164	47.808	23.483	C.3	1	RES1	0.000	
23	 C17	26.296	49.099	21.531	C.2	1	RES1	0.000	
24	 C18	25.811	50.231	22.499	C.3	1	RES1	0.000	
25	 C19	24.596	50.797	24.507	C.3	1	RES1	0.000	
26	 C59	25.418	48.551	24.230	C.3	1	RES1	0.000	
@<TRIPOS>BOND
1 2 12 ar
2 2 13 1
3 2 14 ar
4 1 3 1
5 3 4 1
6 4 7 ar
7 6 14 2
8 7 10 ar
9 8 26 1
10 10 11 1
11 11 12 ar
12 14 15 ar
13 5 16 ar
14 15 16 ar
15 5 17 ar
16 17 18 ar
17 18 19 ar
18 11 19 ar
19 15 19 ar
20 10 20 ar
21 20 21 ar
22 9 21 1
23 21 23 ar
24 9 22 1
25 4 23 ar
26 23 24 1
27 8 24 1
28 8 25 1
@<TRIPOS>SUBSTRUCTURE
1	RES1	1	GROUP	1 ****	RES
