# created with PyMOL 2.5.2
@<TRIPOS>MOLECULE
CDK6_2EUF_TargetProtein
33 37 1                 
SMALL
USER_CHARGES
@<TRIPOS>ATOM
1	  C1	34.704	27.561	59.444	C.3	1	RES1	0.000	
2	  N1	31.365	22.976	63.608	N.2	1	RES1	0.000	
3	  O1	32.655	28.674	59.996	O.2	1	RES1	0.000	
4	  C2	33.283	27.613	59.929	C.2	1	RES1	0.000	
5	  N2	30.249	21.023	62.828	N.pl3	1	RES1	0.000	
6	  C3	32.638	26.321	60.345	C.2	1	RES1	0.000	
7	  N3	27.918	16.974	59.609	N.pl3	1	RES1	0.000	
8	  C4	32.631	25.976	61.633	C.2	1	RES1	0.000	
9	  N4	26.617	14.768	58.266	N.3	1	RES1	0.000	
10	  C5	33.169	26.817	62.757	C.3	1	RES1	0.000	
11	  C6	31.991	24.674	61.982	C.2	1	RES1	0.000	
12	  C7	31.931	24.169	63.271	C.2	1	RES1	0.000	
13	  C8	30.857	22.260	62.617	C.2	1	RES1	0.000	
14	  C9	29.666	20.081	61.962	C.2	1	RES1	0.000	
15	  N9	29.427	18.843	62.520	N.2	1	RES1	0.000	
16	 C10	29.348	20.327	60.632	C.2	1	RES1	0.000	
17	 N10	30.853	22.690	61.322	N.2	1	RES1	0.000	
18	 O10	32.095	25.869	58.098	O.2	1	RES1	0.000	
19	 C11	28.774	19.298	59.863	C.2	1	RES1	0.000	
20	 N11	31.393	24.289	59.644	N.2	1	RES1	0.000	
21	 C12	28.503	18.026	60.385	C.2	1	RES1	0.000	
22	 C13	28.581	15.686	59.476	C.3	1	RES1	0.000	
23	 C14	28.084	14.875	58.292	C.3	1	RES1	0.000	
24	 C38	26.021	16.114	58.216	C.3	1	RES1	0.000	
25	 C39	26.455	16.982	59.415	C.3	1	RES1	0.000	
26	 C40	28.845	17.893	61.755	C.2	1	RES1	0.000	
27	 C41	31.412	23.856	61.028	C.2	1	RES1	0.000	
28	 C42	30.797	23.427	58.605	C.3	1	RES1	0.000	
29	 C43	29.864	24.140	57.593	C.3	1	RES1	0.000	
30	 C44	28.617	23.294	57.572	C.3	1	RES1	0.000	
31	 C45	29.058	21.903	58.011	C.3	1	RES1	0.000	
32	 C46	30.060	22.186	59.094	C.3	1	RES1	0.000	
33	 C47	32.041	25.479	59.257	C.2	1	RES1	0.000	
@<TRIPOS>BOND
1 1 4 1
2 2 12 ar
3 2 13 ar
4 3 4 2
5 4 6 1
6 5 13 1
7 5 14 1
8 6 8 ar
9 6 33 ar
10 7 25 1
11 8 10 1
12 8 11 ar
13 11 12 ar
14 14 15 ar
15 14 16 ar
16 16 19 ar
17 13 17 ar
18 17 27 ar
19 18 33 2
20 19 21 ar
21 20 27 ar
22 20 28 1
23 20 33 ar
24 7 21 1
25 21 26 ar
26 7 22 1
27 22 23 1
28 9 23 1
29 9 24 1
30 24 25 1
31 15 26 ar
32 11 27 ar
33 28 29 1
34 28 32 1
35 29 30 1
36 30 31 1
37 31 32 1
@<TRIPOS>SUBSTRUCTURE
1	RES1	1	GROUP	1 ****	RES
