# created with PyMOL 2.5.2
@<TRIPOS>MOLECULE
BRD9_6HM0_TargetProtein
33 36 1                 
SMALL
USER_CHARGES
@<TRIPOS>ATOM
1	  C1	2.555	0.754	-6.018	C.3	1	RES1	0.000	
2	  N1	9.945	-0.033	-5.420	N.2	1	RES1	0.000	
3	  O1	2.764	0.198	-4.679	O.3	1	RES1	0.000	
4	  C2	4.000	-0.462	-4.450	C.2	1	RES1	0.000	
5	  N2	8.000	-0.175	-9.869	N.2	1	RES1	0.000	
6	  O2	11.205	0.374	-7.314	O.2	1	RES1	0.000	
7	  C3	5.173	-0.162	-5.150	C.2	1	RES1	0.000	
8	  N3	2.385	-0.763	-1.628	N.3	1	RES1	0.000	
9	  O3	5.116	-3.100	-2.141	O.3	1	RES1	0.000	
10	  C4	6.351	-0.847	-4.875	C.2	1	RES1	0.000	
11	  N4	0.571	0.381	0.351	N.3	1	RES1	0.000	
12	  O4	-1.629	2.978	1.453	O.3	1	RES1	0.000	
13	  C5	7.597	-0.544	-5.622	C.2	1	RES1	0.000	
14	  C6	8.701	-0.345	-4.889	C.2	1	RES1	0.000	
15	  C7	11.042	0.150	-4.513	C.3	1	RES1	0.000	
16	  C8	10.139	0.099	-6.794	C.2	1	RES1	0.000	
17	  C9	8.964	-0.110	-7.663	C.2	1	RES1	0.000	
18	 C10	9.063	-0.013	-9.033	C.2	1	RES1	0.000	
19	 C11	6.813	-0.491	-9.307	C.2	1	RES1	0.000	
20	 C12	6.629	-0.607	-7.929	C.2	1	RES1	0.000	
21	 C13	7.715	-0.415	-7.086	C.2	1	RES1	0.000	
22	 C14	6.354	-1.815	-3.862	C.2	1	RES1	0.000	
23	 C15	5.168	-2.133	-3.156	C.2	1	RES1	0.000	
24	 C16	6.294	-3.337	-1.389	C.3	1	RES1	0.000	
25	 C17	3.986	-1.427	-3.462	C.2	1	RES1	0.000	
26	 C18	2.714	-1.758	-2.678	C.3	1	RES1	0.000	
27	 C19	2.095	-1.443	-0.360	C.3	1	RES1	0.000	
28	 C20	1.726	-0.443	0.760	C.3	1	RES1	0.000	
29	 C21	0.094	1.297	1.443	C.3	1	RES1	0.000	
30	 C22	-0.297	2.720	1.031	C.3	1	RES1	0.000	
31	 C23	-1.854	4.347	1.783	C.3	1	RES1	0.000	
32	 C58	0.845	1.059	-0.901	C.3	1	RES1	0.000	
33	 C59	1.214	0.075	-2.035	C.3	1	RES1	0.000	
@<TRIPOS>BOND
1 2 14 ar
2 2 15 1
3 2 16 ar
4 1 3 1
5 3 4 1
6 4 7 ar
7 6 16 2
8 7 10 ar
9 8 33 1
10 10 13 1
11 11 32 1
12 13 14 ar
13 16 17 ar
14 5 18 ar
15 17 18 ar
16 5 19 ar
17 19 20 ar
18 20 21 ar
19 13 21 ar
20 17 21 ar
21 10 22 ar
22 22 23 ar
23 9 23 1
24 23 25 ar
25 9 24 1
26 4 25 ar
27 25 26 1
28 8 26 1
29 8 27 1
30 27 28 1
31 11 28 1
32 11 29 1
33 29 30 1
34 12 30 1
35 12 31 1
36 32 33 1
@<TRIPOS>SUBSTRUCTURE
1	RES1	1	GROUP	1 ****	RES
