# created with PyMOL 2.5.2
@<TRIPOS>MOLECULE
BRD7_6V1E_TargetProtein
26 28 1                 
SMALL
USER_CHARGES
@<TRIPOS>ATOM
1	  C1	29.139	47.776	23.494	C.3	1	RES1	0.000	
2	  N1	27.149	43.860	17.976	N.2	1	RES1	0.000	
3	  O1	28.069	48.647	23.069	O.3	1	RES1	0.000	
4	  C2	27.439	48.365	21.868	C.2	1	RES1	0.000	
5	  N2	31.227	46.077	16.504	N.2	1	RES1	0.000	
6	  O2	28.596	42.864	16.441	O.2	1	RES1	0.000	
7	  C3	27.860	47.336	21.002	C.2	1	RES1	0.000	
8	  N3	24.855	49.714	23.532	N.3	1	RES1	0.000	
9	  O3	24.479	49.668	20.097	O.3	1	RES1	0.000	
10	  C4	27.176	47.094	19.815	C.2	1	RES1	0.000	
11	  C5	27.639	46.034	18.881	C.2	1	RES1	0.000	
12	  C6	26.857	44.940	18.786	C.2	1	RES1	0.000	
13	  C7	26.214	42.754	17.962	C.3	1	RES1	0.000	
14	  C8	28.318	43.798	17.162	C.2	1	RES1	0.000	
15	  C9	29.198	44.999	17.258	C.2	1	RES1	0.000	
16	 C10	30.377	45.050	16.482	C.2	1	RES1	0.000	
17	 C11	30.892	47.119	17.317	C.2	1	RES1	0.000	
18	 C12	29.774	47.162	18.110	C.2	1	RES1	0.000	
19	 C13	28.893	46.057	18.052	C.2	1	RES1	0.000	
20	 C14	26.037	47.842	19.475	C.2	1	RES1	0.000	
21	 C15	25.613	48.878	20.349	C.2	1	RES1	0.000	
22	 C16	23.718	49.393	18.905	C.3	1	RES1	0.000	
23	 C17	26.299	49.121	21.533	C.2	1	RES1	0.000	
24	 C18	25.822	50.213	22.491	C.3	1	RES1	0.000	
25	 C19	24.602	50.782	24.494	C.3	1	RES1	0.000	
26	 C56	25.394	48.528	24.219	C.3	1	RES1	0.000	
@<TRIPOS>BOND
1 2 12 ar
2 2 13 1
3 2 14 ar
4 1 3 1
5 3 4 1
6 4 7 ar
7 6 14 2
8 7 10 ar
9 8 26 1
10 10 11 1
11 11 12 ar
12 14 15 ar
13 5 16 ar
14 15 16 ar
15 5 17 ar
16 17 18 ar
17 18 19 ar
18 11 19 ar
19 15 19 ar
20 10 20 ar
21 20 21 ar
22 9 21 1
23 21 23 ar
24 9 22 1
25 4 23 ar
26 23 24 1
27 8 24 1
28 8 25 1
@<TRIPOS>SUBSTRUCTURE
1	RES1	1	GROUP	1 ****	RES
