# created with PyMOL 2.5.2
@<TRIPOS>MOLECULE
BRD9_6HM0_TargetProtein
33 36 1                 
SMALL
USER_CHARGES
@<TRIPOS>ATOM
1	  C1	2.311	0.394	-6.038	C.3	1	RES1	0.000	
2	  N1	9.629	0.235	-5.081	N.2	1	RES1	0.000	
3	  O1	2.446	-0.269	-4.768	O.3	1	RES1	0.000	
4	  C2	3.742	-0.811	-4.458	C.2	1	RES1	0.000	
5	  N2	7.977	0.097	-9.653	N.2	1	RES1	0.000	
6	  O2	10.980	0.826	-6.894	O.2	1	RES1	0.000	
7	  C3	4.927	-0.383	-5.080	C.2	1	RES1	0.000	
8	  N3	1.972	-1.472	-1.700	N.3	1	RES1	0.000	
9	  O3	4.968	-3.488	-2.264	O.3	1	RES1	0.000	
10	  C4	6.144	-0.951	-4.771	C.2	1	RES1	0.000	
11	  N4	1.422	0.874	-0.084	N.3	1	RES1	0.000	
12	  O4	-0.863	3.352	1.019	O.3	1	RES1	0.000	
13	  C5	7.390	-0.488	-5.440	C.2	1	RES1	0.000	
14	  C6	8.432	-0.232	-4.627	C.2	1	RES1	0.000	
15	  C7	10.700	0.472	-4.087	C.3	1	RES1	0.000	
16	  C8	9.915	0.438	-6.431	C.2	1	RES1	0.000	
17	  C9	8.806	0.146	-7.386	C.2	1	RES1	0.000	
18	 C10	8.953	0.342	-8.759	C.2	1	RES1	0.000	
19	 C11	6.817	-0.359	-9.157	C.2	1	RES1	0.000	
20	 C12	6.547	-0.556	-7.814	C.2	1	RES1	0.000	
21	 C13	7.587	-0.282	-6.887	C.2	1	RES1	0.000	
22	 C14	6.185	-1.984	-3.845	C.2	1	RES1	0.000	
23	 C15	5.001	-2.435	-3.212	C.2	1	RES1	0.000	
24	 C16	6.124	-3.633	-1.457	C.3	1	RES1	0.000	
25	 C17	3.779	-1.848	-3.519	C.2	1	RES1	0.000	
26	 C18	2.516	-2.313	-2.819	C.3	1	RES1	0.000	
27	 C19	0.966	-0.491	-2.110	C.3	1	RES1	0.000	
28	 C20	0.362	0.271	-0.909	C.3	1	RES1	0.000	
29	 C21	0.849	1.679	1.046	C.3	1	RES1	0.000	
30	 C22	0.554	3.150	0.787	C.3	1	RES1	0.000	
31	 C23	-1.111	4.685	1.521	C.3	1	RES1	0.000	
32	 C55	2.401	-0.118	0.333	C.3	1	RES1	0.000	
33	 C56	3.003	-0.846	-0.853	C.3	1	RES1	0.000	
@<TRIPOS>BOND
1 2 14 ar
2 2 15 1
3 2 16 ar
4 1 3 1
5 3 4 1
6 4 7 ar
7 6 16 2
8 7 10 ar
9 8 33 1
10 10 13 1
11 11 32 1
12 13 14 ar
13 16 17 ar
14 5 18 ar
15 17 18 ar
16 5 19 ar
17 19 20 ar
18 20 21 ar
19 13 21 ar
20 17 21 ar
21 10 22 ar
22 22 23 ar
23 9 23 1
24 23 25 ar
25 9 24 1
26 4 25 ar
27 25 26 1
28 8 26 1
29 8 27 1
30 27 28 1
31 11 28 1
32 11 29 1
33 29 30 1
34 12 30 1
35 12 31 1
36 32 33 1
@<TRIPOS>SUBSTRUCTURE
1	RES1	1	GROUP	1 ****	RES
