# created with PyMOL 2.5.2
@<TRIPOS>MOLECULE
BRD7_6V1E_TargetProtein
26 28 1                 
SMALL
USER_CHARGES
@<TRIPOS>ATOM
1	  C1	23.704	49.368	18.915	C.3	1	RES1	0.000	
2	  N1	27.153	43.856	17.937	N.2	1	RES1	0.000	
3	  O1	24.475	49.637	20.114	O.3	1	RES1	0.000	
4	  C2	25.611	48.845	20.352	C.2	1	RES1	0.000	
5	  N2	31.239	46.079	16.524	N.2	1	RES1	0.000	
6	  O2	28.619	42.884	16.406	O.2	1	RES1	0.000	
7	  C3	26.026	47.815	19.494	C.2	1	RES1	0.000	
8	  N3	24.885	49.733	23.520	N.3	1	RES1	0.000	
9	  O3	28.083	48.645	23.064	O.3	1	RES1	0.000	
10	  C4	27.165	47.097	19.809	C.2	1	RES1	0.000	
11	  C5	27.654	46.021	18.890	C.2	1	RES1	0.000	
12	  C6	26.835	44.961	18.768	C.2	1	RES1	0.000	
13	  C7	26.230	42.737	17.941	C.3	1	RES1	0.000	
14	  C8	28.285	43.815	17.150	C.2	1	RES1	0.000	
15	  C9	29.183	44.982	17.247	C.2	1	RES1	0.000	
16	 C10	30.387	45.047	16.490	C.2	1	RES1	0.000	
17	 C11	30.923	47.093	17.341	C.2	1	RES1	0.000	
18	 C12	29.768	47.148	18.129	C.2	1	RES1	0.000	
19	 C13	28.862	46.083	18.078	C.2	1	RES1	0.000	
20	 C14	27.871	47.351	20.980	C.2	1	RES1	0.000	
21	 C15	27.435	48.353	21.868	C.2	1	RES1	0.000	
22	 C16	29.143	47.790	23.494	C.3	1	RES1	0.000	
23	 C17	26.285	49.131	21.549	C.2	1	RES1	0.000	
24	 C18	25.797	50.208	22.481	C.3	1	RES1	0.000	
25	 C19	24.596	50.822	24.478	C.3	1	RES1	0.000	
26	 C52	25.423	48.572	24.256	C.3	1	RES1	0.000	
@<TRIPOS>BOND
1 2 12 ar
2 2 13 1
3 2 14 ar
4 1 3 1
5 3 4 1
6 4 7 ar
7 6 14 2
8 7 10 ar
9 8 26 1
10 10 11 1
11 11 12 ar
12 14 15 ar
13 5 16 ar
14 15 16 ar
15 5 17 ar
16 17 18 ar
17 18 19 ar
18 11 19 ar
19 15 19 ar
20 10 20 ar
21 20 21 ar
22 9 21 1
23 21 23 ar
24 9 22 1
25 4 23 ar
26 23 24 1
27 8 24 1
28 8 25 1
@<TRIPOS>SUBSTRUCTURE
1	RES1	1	GROUP	1 ****	RES
