# created with PyMOL 2.5.2
@<TRIPOS>MOLECULE
BRD9_6HM0_TargetProtein
33 36 1                 
SMALL
USER_CHARGES
@<TRIPOS>ATOM
1	  C1	2.397	0.206	-6.067	C.3	1	RES1	0.000	
2	  N1	9.760	0.368	-5.288	N.2	1	RES1	0.000	
3	  O1	2.593	-0.267	-4.746	O.3	1	RES1	0.000	
4	  C2	3.881	-0.748	-4.418	C.2	1	RES1	0.000	
5	  N2	7.941	-0.189	-9.742	N.2	1	RES1	0.000	
6	  O2	11.000	0.894	-7.179	O.2	1	RES1	0.000	
7	  C3	5.039	-0.387	-5.142	C.2	1	RES1	0.000	
8	  N3	2.144	-0.976	-1.762	N.3	1	RES1	0.000	
9	  O3	5.228	-3.050	-1.889	O.3	1	RES1	0.000	
10	  C4	6.295	-0.898	-4.733	C.2	1	RES1	0.000	
11	  N4	-0.005	0.268	-0.190	N.3	1	RES1	0.000	
12	  O4	0.268	3.618	0.993	O.3	1	RES1	0.000	
13	  C5	7.492	-0.467	-5.487	C.2	1	RES1	0.000	
14	  C6	8.561	-0.082	-4.750	C.2	1	RES1	0.000	
15	  C7	10.825	0.744	-4.346	C.3	1	RES1	0.000	
16	  C8	9.961	0.501	-6.660	C.2	1	RES1	0.000	
17	  C9	8.825	0.092	-7.526	C.2	1	RES1	0.000	
18	 C10	8.916	0.164	-8.906	C.2	1	RES1	0.000	
19	 C11	6.776	-0.619	-9.186	C.2	1	RES1	0.000	
20	 C12	6.580	-0.730	-7.831	C.2	1	RES1	0.000	
21	 C13	7.620	-0.367	-6.945	C.2	1	RES1	0.000	
22	 C14	6.367	-1.766	-3.687	C.2	1	RES1	0.000	
23	 C15	5.219	-2.159	-2.995	C.2	1	RES1	0.000	
24	 C16	6.441	-3.108	-1.147	C.3	1	RES1	0.000	
25	 C17	3.957	-1.636	-3.344	C.2	1	RES1	0.000	
26	 C18	2.728	-2.049	-2.592	C.3	1	RES1	0.000	
27	 C19	0.973	-0.333	-2.403	C.3	1	RES1	0.000	
28	 C20	0.364	0.768	-1.525	C.3	1	RES1	0.000	
29	 C21	-0.585	1.365	0.642	C.3	1	RES1	0.000	
30	 C22	0.447	2.234	1.333	C.3	1	RES1	0.000	
31	 C23	0.548	4.482	2.074	C.3	1	RES1	0.000	
32	 C51	1.134	-0.382	0.462	C.3	1	RES1	0.000	
33	 C52	1.760	-1.488	-0.422	C.3	1	RES1	0.000	
@<TRIPOS>BOND
1 2 14 ar
2 2 15 1
3 2 16 ar
4 1 3 1
5 3 4 1
6 4 7 ar
7 6 16 2
8 7 10 ar
9 8 33 1
10 10 13 1
11 11 32 1
12 13 14 ar
13 16 17 ar
14 5 18 ar
15 17 18 ar
16 5 19 ar
17 19 20 ar
18 20 21 ar
19 13 21 ar
20 17 21 ar
21 10 22 ar
22 22 23 ar
23 9 23 1
24 23 25 ar
25 9 24 1
26 4 25 ar
27 25 26 1
28 8 26 1
29 8 27 1
30 27 28 1
31 11 28 1
32 11 29 1
33 29 30 1
34 12 30 1
35 12 31 1
36 32 33 1
@<TRIPOS>SUBSTRUCTURE
1	RES1	1	GROUP	1 ****	RES
