# created with PyMOL 2.5.2
@<TRIPOS>MOLECULE
BRD7_5MQ1_TargetProtein
26 28 1                 
SMALL
USER_CHARGES
@<TRIPOS>ATOM
1	  C1	18.153	156.276	42.064	C.3	1	RES1	0.000	
2	  N1	12.845	152.293	44.945	N.2	1	RES1	0.000	
3	  O1	18.965	155.281	42.718	O.3	1	RES1	0.000	
4	  C2	18.303	154.408	43.598	C.2	1	RES1	0.000	
5	  N2	12.574	157.007	46.089	N.2	1	RES1	0.000	
6	  O2	10.821	153.312	45.463	O.2	1	RES1	0.000	
7	  C3	16.925	154.398	43.839	C.2	1	RES1	0.000	
8	  N3	21.048	153.130	42.699	N.3	1	RES1	0.000	
9	  O3	16.507	151.776	46.360	O.3	1	RES1	0.000	
10	  C4	16.349	153.522	44.763	C.2	1	RES1	0.000	
11	  C5	14.900	153.575	44.950	C.2	1	RES1	0.000	
12	  C6	14.210	152.426	44.779	C.2	1	RES1	0.000	
13	  C7	12.266	150.967	44.732	C.3	1	RES1	0.000	
14	  C8	12.014	153.358	45.300	C.2	1	RES1	0.000	
15	  C9	12.712	154.644	45.529	C.2	1	RES1	0.000	
16	 C10	12.014	155.820	45.905	C.2	1	RES1	0.000	
17	 C11	13.906	157.086	45.929	C.2	1	RES1	0.000	
18	 C12	14.699	155.995	45.580	C.2	1	RES1	0.000	
19	 C13	14.125	154.755	45.360	C.2	1	RES1	0.000	
20	 C14	17.163	152.617	45.466	C.2	1	RES1	0.000	
21	 C15	17.290	150.647	46.875	C.3	1	RES1	0.000	
22	 C16	18.578	152.613	45.227	C.2	1	RES1	0.000	
23	 C17	19.151	153.504	44.292	C.2	1	RES1	0.000	
24	 C18	20.623	153.457	44.104	C.3	1	RES1	0.000	
25	 C19	20.531	151.832	42.255	C.3	1	RES1	0.000	
26	 C52	22.518	153.159	42.604	C.3	1	RES1	0.000	
@<TRIPOS>BOND
1 2 12 ar
2 2 13 1
3 2 14 ar
4 1 3 1
5 3 4 1
6 4 7 ar
7 6 14 2
8 7 10 ar
9 8 26 1
10 10 11 1
11 11 12 ar
12 14 15 ar
13 5 16 ar
14 15 16 ar
15 5 17 ar
16 17 18 ar
17 18 19 ar
18 11 19 ar
19 15 19 ar
20 9 20 1
21 10 20 ar
22 20 22 ar
23 9 21 1
24 22 23 ar
25 4 23 ar
26 23 24 1
27 8 24 1
28 8 25 1
@<TRIPOS>SUBSTRUCTURE
1	RES1	1	GROUP	1 ****	RES
