# created with PyMOL 2.5.2
@<TRIPOS>MOLECULE
BRD7_5MQ1_TargetProtein
26 28 1                 
SMALL
USER_CHARGES
@<TRIPOS>ATOM
1	  C1	18.103	156.219	42.044	C.3	1	RES1	0.000	
2	  N1	12.859	152.321	44.893	N.2	1	RES1	0.000	
3	  O1	18.939	155.255	42.685	O.3	1	RES1	0.000	
4	  C2	18.308	154.377	43.612	C.2	1	RES1	0.000	
5	  N2	12.552	156.987	46.123	N.2	1	RES1	0.000	
6	  O2	10.821	153.300	45.345	O.2	1	RES1	0.000	
7	  C3	16.915	154.391	43.872	C.2	1	RES1	0.000	
8	  N3	21.006	153.122	42.669	N.3	1	RES1	0.000	
9	  O3	16.577	151.798	46.435	O.3	1	RES1	0.000	
10	  C4	16.373	153.519	44.828	C.2	1	RES1	0.000	
11	  C5	14.930	153.569	45.021	C.2	1	RES1	0.000	
12	  C6	14.217	152.417	44.777	C.2	1	RES1	0.000	
13	  C7	12.270	151.003	44.603	C.3	1	RES1	0.000	
14	  C8	12.036	153.382	45.247	C.2	1	RES1	0.000	
15	  C9	12.739	154.662	45.509	C.2	1	RES1	0.000	
16	 C10	11.991	155.802	45.865	C.2	1	RES1	0.000	
17	 C11	13.887	157.067	45.973	C.2	1	RES1	0.000	
18	 C12	14.701	156.019	45.649	C.2	1	RES1	0.000	
19	 C13	14.112	154.770	45.401	C.2	1	RES1	0.000	
20	 C14	17.183	152.650	45.523	C.2	1	RES1	0.000	
21	 C15	17.347	150.682	46.920	C.3	1	RES1	0.000	
22	 C16	18.580	152.642	45.266	C.2	1	RES1	0.000	
23	 C17	19.147	153.494	44.312	C.2	1	RES1	0.000	
24	 C18	20.630	153.463	44.075	C.3	1	RES1	0.000	
25	 C19	20.481	151.798	42.267	C.3	1	RES1	0.000	
26	 C54	22.483	153.152	42.511	C.3	1	RES1	0.000	
@<TRIPOS>BOND
1 2 12 ar
2 2 13 1
3 2 14 ar
4 1 3 1
5 3 4 1
6 4 7 ar
7 6 14 2
8 7 10 ar
9 8 26 1
10 10 11 1
11 11 12 ar
12 14 15 ar
13 5 16 ar
14 15 16 ar
15 5 17 ar
16 17 18 ar
17 18 19 ar
18 11 19 ar
19 15 19 ar
20 9 20 1
21 10 20 ar
22 20 22 ar
23 9 21 1
24 22 23 ar
25 4 23 ar
26 23 24 1
27 8 24 1
28 8 25 1
@<TRIPOS>SUBSTRUCTURE
1	RES1	1	GROUP	1 ****	RES
