# created with PyMOL 2.5.2
@<TRIPOS>MOLECULE
BRD7_6V1E_TargetProtein
26 28 1                 
SMALL
USER_CHARGES
@<TRIPOS>ATOM
1	  C1	29.335	47.663	23.472	C.3	1	RES1	0.000	
2	  N1	27.095	43.888	17.909	N.2	1	RES1	0.000	
3	  O1	28.261	48.551	23.112	O.3	1	RES1	0.000	
4	  C2	27.578	48.261	21.919	C.2	1	RES1	0.000	
5	  N2	31.204	46.061	16.430	N.2	1	RES1	0.000	
6	  O2	28.508	42.918	16.314	O.2	1	RES1	0.000	
7	  C3	27.949	47.295	21.013	C.2	1	RES1	0.000	
8	  N3	25.108	49.616	23.713	N.3	1	RES1	0.000	
9	  O3	24.555	49.653	20.285	O.3	1	RES1	0.000	
10	  C4	27.248	47.047	19.846	C.2	1	RES1	0.000	
11	  C5	27.669	46.038	18.884	C.2	1	RES1	0.000	
12	  C6	26.856	44.945	18.765	C.2	1	RES1	0.000	
13	  C7	26.162	42.789	17.880	C.3	1	RES1	0.000	
14	  C8	28.218	43.836	17.080	C.2	1	RES1	0.000	
15	  C9	29.143	45.002	17.192	C.2	1	RES1	0.000	
16	 C10	30.309	45.051	16.404	C.2	1	RES1	0.000	
17	 C11	30.909	47.092	17.287	C.2	1	RES1	0.000	
18	 C12	29.794	47.120	18.099	C.2	1	RES1	0.000	
19	 C13	28.880	46.080	18.042	C.2	1	RES1	0.000	
20	 C14	26.114	47.843	19.586	C.2	1	RES1	0.000	
21	 C15	25.704	48.822	20.468	C.2	1	RES1	0.000	
22	 C16	23.793	49.403	19.098	C.3	1	RES1	0.000	
23	 C17	26.433	49.040	21.670	C.2	1	RES1	0.000	
24	 C18	25.988	50.115	22.677	C.3	1	RES1	0.000	
25	 C19	25.088	50.541	24.873	C.3	1	RES1	0.000	
26	 C56	23.733	49.400	23.256	C.3	1	RES1	0.000	
@<TRIPOS>BOND
1 2 12 ar
2 2 13 1
3 2 14 ar
4 1 3 1
5 3 4 1
6 4 7 ar
7 6 14 2
8 7 10 ar
9 8 26 1
10 10 11 1
11 11 12 ar
12 14 15 ar
13 5 16 ar
14 15 16 ar
15 5 17 ar
16 17 18 ar
17 18 19 ar
18 11 19 ar
19 15 19 ar
20 10 20 ar
21 20 21 ar
22 9 21 1
23 21 23 ar
24 9 22 1
25 4 23 ar
26 23 24 1
27 8 24 1
28 8 25 1
@<TRIPOS>SUBSTRUCTURE
1	RES1	1	GROUP	1 ****	RES
