# created with PyMOL 2.5.2
@<TRIPOS>MOLECULE
BRD9_6HM0_TargetProtein
33 36 1                 
SMALL
USER_CHARGES
@<TRIPOS>ATOM
1	  C1	2.388	0.242	-6.096	C.3	1	RES1	0.000	
2	  N1	9.838	0.232	-5.340	N.2	1	RES1	0.000	
3	  O1	2.602	-0.229	-4.772	O.3	1	RES1	0.000	
4	  C2	3.907	-0.707	-4.440	C.2	1	RES1	0.000	
5	  N2	7.927	-0.182	-9.786	N.2	1	RES1	0.000	
6	  O2	11.070	0.676	-7.250	O.2	1	RES1	0.000	
7	  C3	5.056	-0.339	-5.141	C.2	1	RES1	0.000	
8	  N3	2.182	-0.939	-1.748	N.3	1	RES1	0.000	
9	  O3	5.274	-2.994	-1.878	O.3	1	RES1	0.000	
10	  C4	6.324	-0.818	-4.777	C.2	1	RES1	0.000	
11	  N4	0.011	0.283	-0.187	N.3	1	RES1	0.000	
12	  O4	-0.042	3.597	1.118	O.3	1	RES1	0.000	
13	  C5	7.526	-0.427	-5.513	C.2	1	RES1	0.000	
14	  C6	8.627	-0.113	-4.781	C.2	1	RES1	0.000	
15	  C7	10.939	0.540	-4.407	C.3	1	RES1	0.000	
16	  C8	10.035	0.349	-6.730	C.2	1	RES1	0.000	
17	  C9	8.855	0.019	-7.566	C.2	1	RES1	0.000	
18	 C10	8.954	0.101	-8.954	C.2	1	RES1	0.000	
19	 C11	6.762	-0.555	-9.229	C.2	1	RES1	0.000	
20	 C12	6.571	-0.653	-7.830	C.2	1	RES1	0.000	
21	 C13	7.661	-0.359	-6.985	C.2	1	RES1	0.000	
22	 C14	6.405	-1.701	-3.700	C.2	1	RES1	0.000	
23	 C15	5.248	-2.084	-2.986	C.2	1	RES1	0.000	
24	 C16	6.491	-3.029	-1.107	C.3	1	RES1	0.000	
25	 C17	4.018	-1.593	-3.364	C.2	1	RES1	0.000	
26	 C18	2.760	-2.028	-2.582	C.3	1	RES1	0.000	
27	 C19	0.999	-0.285	-2.389	C.3	1	RES1	0.000	
28	 C20	0.417	0.820	-1.494	C.3	1	RES1	0.000	
29	 C21	-0.645	1.304	0.700	C.3	1	RES1	0.000	
30	 C22	0.251	2.208	1.504	C.3	1	RES1	0.000	
31	 C23	0.063	4.478	2.236	C.3	1	RES1	0.000	
32	 C55	1.183	-0.363	0.498	C.3	1	RES1	0.000	
33	 C56	1.782	-1.444	-0.427	C.3	1	RES1	0.000	
@<TRIPOS>BOND
1 2 14 ar
2 2 15 1
3 2 16 ar
4 1 3 1
5 3 4 1
6 4 7 ar
7 6 16 2
8 7 10 ar
9 8 33 1
10 10 13 1
11 11 32 1
12 13 14 ar
13 16 17 ar
14 5 18 ar
15 17 18 ar
16 5 19 ar
17 19 20 ar
18 20 21 ar
19 13 21 ar
20 17 21 ar
21 10 22 ar
22 22 23 ar
23 9 23 1
24 23 25 ar
25 9 24 1
26 4 25 ar
27 25 26 1
28 8 26 1
29 8 27 1
30 27 28 1
31 11 28 1
32 11 29 1
33 29 30 1
34 12 30 1
35 12 31 1
36 32 33 1
@<TRIPOS>SUBSTRUCTURE
1	RES1	1	GROUP	1 ****	RES
