# created with PyMOL 2.5.2
@<TRIPOS>MOLECULE
BRD7_5MQ1_TargetProtein
26 28 1                 
SMALL
USER_CHARGES
@<TRIPOS>ATOM
1	  C1	18.339	156.169	42.098	C.3	1	RES1	0.000	
2	  N1	12.886	152.292	44.852	N.2	1	RES1	0.000	
3	  O1	19.117	155.169	42.790	O.3	1	RES1	0.000	
4	  C2	18.429	154.355	43.691	C.2	1	RES1	0.000	
5	  N2	12.619	157.008	46.042	N.2	1	RES1	0.000	
6	  O2	10.877	153.336	45.327	O.2	1	RES1	0.000	
7	  C3	17.035	154.352	43.880	C.2	1	RES1	0.000	
8	  N3	21.152	152.973	42.900	N.3	1	RES1	0.000	
9	  O3	16.540	151.767	46.424	O.3	1	RES1	0.000	
10	  C4	16.408	153.495	44.795	C.2	1	RES1	0.000	
11	  C5	14.976	153.559	44.956	C.2	1	RES1	0.000	
12	  C6	14.280	152.423	44.737	C.2	1	RES1	0.000	
13	  C7	12.284	150.990	44.598	C.3	1	RES1	0.000	
14	  C8	12.071	153.374	45.199	C.2	1	RES1	0.000	
15	  C9	12.787	154.676	45.456	C.2	1	RES1	0.000	
16	 C10	12.089	155.804	45.809	C.2	1	RES1	0.000	
17	 C11	13.975	157.073	45.921	C.2	1	RES1	0.000	
18	 C12	14.799	155.989	45.577	C.2	1	RES1	0.000	
19	 C13	14.175	154.743	45.330	C.2	1	RES1	0.000	
20	 C14	17.193	152.576	45.544	C.2	1	RES1	0.000	
21	 C15	17.270	150.656	46.995	C.3	1	RES1	0.000	
22	 C16	18.606	152.587	45.363	C.2	1	RES1	0.000	
23	 C17	19.224	153.442	44.433	C.2	1	RES1	0.000	
24	 C18	20.720	153.377	44.262	C.3	1	RES1	0.000	
25	 C19	20.776	153.990	41.914	C.3	1	RES1	0.000	
26	 C56	20.558	151.658	42.521	C.3	1	RES1	0.000	
@<TRIPOS>BOND
1 2 12 ar
2 2 13 1
3 2 14 ar
4 1 3 1
5 3 4 1
6 4 7 ar
7 6 14 2
8 7 10 ar
9 8 26 1
10 10 11 1
11 11 12 ar
12 14 15 ar
13 5 16 ar
14 15 16 ar
15 5 17 ar
16 17 18 ar
17 18 19 ar
18 11 19 ar
19 15 19 ar
20 9 20 1
21 10 20 ar
22 20 22 ar
23 9 21 1
24 22 23 ar
25 4 23 ar
26 23 24 1
27 8 24 1
28 8 25 1
@<TRIPOS>SUBSTRUCTURE
1	RES1	1	GROUP	1 ****	RES
