# created with PyMOL 2.5.2
@<TRIPOS>MOLECULE
CDK6_2EUF_TargetProtein
33 37 1                 
SMALL
USER_CHARGES
@<TRIPOS>ATOM
1	  C1	34.686	27.577	59.463	C.3	1	RES1	0.000	
2	  N1	31.459	22.939	63.584	N.2	1	RES1	0.000	
3	  O1	32.635	28.714	59.975	O.2	1	RES1	0.000	
4	  C2	33.253	27.654	59.941	C.2	1	RES1	0.000	
5	  N2	30.323	20.957	62.784	N.pl3	1	RES1	0.000	
6	  C3	32.617	26.362	60.342	C.2	1	RES1	0.000	
7	  N3	27.843	16.924	59.703	N.pl3	1	RES1	0.000	
8	  C4	32.598	25.983	61.652	C.2	1	RES1	0.000	
9	  N4	26.824	14.827	57.967	N.3	1	RES1	0.000	
10	  C5	33.147	26.831	62.760	C.3	1	RES1	0.000	
11	  C6	32.018	24.681	61.991	C.2	1	RES1	0.000	
12	  C7	32.000	24.117	63.260	C.2	1	RES1	0.000	
13	  C8	30.935	22.249	62.554	C.2	1	RES1	0.000	
14	  N8	29.606	18.772	62.472	N.2	1	RES1	0.000	
15	  C9	29.692	20.026	61.953	C.2	1	RES1	0.000	
16	  N9	30.880	22.662	61.300	N.2	1	RES1	0.000	
17	 C10	29.181	20.316	60.680	C.2	1	RES1	0.000	
18	 N10	31.437	24.310	59.638	N.2	1	RES1	0.000	
19	 C11	28.568	19.301	59.953	C.2	1	RES1	0.000	
20	 O11	32.077	25.920	58.094	O.2	1	RES1	0.000	
21	 C12	28.454	17.973	60.445	C.2	1	RES1	0.000	
22	 C13	27.161	17.261	58.416	C.3	1	RES1	0.000	
23	 C14	26.202	16.138	57.984	C.3	1	RES1	0.000	
24	 C38	27.312	14.515	59.305	C.3	1	RES1	0.000	
25	 C39	28.344	15.546	59.828	C.3	1	RES1	0.000	
26	 C40	29.009	17.812	61.726	C.2	1	RES1	0.000	
27	 C41	31.446	23.857	61.003	C.2	1	RES1	0.000	
28	 C42	30.790	23.474	58.600	C.3	1	RES1	0.000	
29	 C43	29.881	24.152	57.601	C.3	1	RES1	0.000	
30	 C44	28.575	23.376	57.577	C.3	1	RES1	0.000	
31	 C45	28.966	22.014	58.070	C.3	1	RES1	0.000	
32	 C46	29.964	22.308	59.157	C.3	1	RES1	0.000	
33	 C47	32.021	25.517	59.250	C.2	1	RES1	0.000	
@<TRIPOS>BOND
1 1 4 1
2 2 12 ar
3 2 13 ar
4 3 4 2
5 4 6 1
6 5 13 1
7 5 15 1
8 6 8 ar
9 6 33 ar
10 7 25 1
11 8 10 1
12 8 11 ar
13 11 12 ar
14 13 16 ar
15 14 15 ar
16 15 17 ar
17 17 19 ar
18 18 27 ar
19 18 28 1
20 18 33 ar
21 19 21 ar
22 20 33 2
23 7 21 1
24 21 26 ar
25 7 22 1
26 22 23 1
27 9 23 1
28 9 24 1
29 24 25 1
30 14 26 ar
31 11 27 ar
32 16 27 ar
33 28 29 1
34 28 32 1
35 29 30 1
36 30 31 1
37 31 32 1
@<TRIPOS>SUBSTRUCTURE
1	RES1	1	GROUP	1 ****	RES
