# created with PyMOL 2.5.2
@<TRIPOS>MOLECULE
BRD7_6V1E_TargetProtein
26 28 1                 
SMALL
USER_CHARGES
@<TRIPOS>ATOM
1	  C1	29.321	47.670	23.476	C.3	1	RES1	0.000	
2	  N1	27.095	43.893	17.927	N.2	1	RES1	0.000	
3	  O1	28.265	48.531	23.126	O.3	1	RES1	0.000	
4	  C2	27.580	48.270	21.908	C.2	1	RES1	0.000	
5	  N2	31.179	46.084	16.409	N.2	1	RES1	0.000	
6	  O2	28.512	42.924	16.312	O.2	1	RES1	0.000	
7	  C3	27.952	47.258	21.031	C.2	1	RES1	0.000	
8	  N3	25.105	49.603	23.734	N.3	1	RES1	0.000	
9	  O3	24.558	49.658	20.268	O.3	1	RES1	0.000	
10	  C4	27.220	47.064	19.836	C.2	1	RES1	0.000	
11	  C5	27.669	46.026	18.869	C.2	1	RES1	0.000	
12	  C6	26.851	44.953	18.752	C.2	1	RES1	0.000	
13	  C7	26.154	42.775	17.885	C.3	1	RES1	0.000	
14	  C8	28.234	43.829	17.108	C.2	1	RES1	0.000	
15	  C9	29.162	45.007	17.171	C.2	1	RES1	0.000	
16	 C10	30.344	45.066	16.412	C.2	1	RES1	0.000	
17	 C11	30.906	47.080	17.277	C.2	1	RES1	0.000	
18	 C12	29.781	47.115	18.089	C.2	1	RES1	0.000	
19	 C13	28.877	46.042	18.063	C.2	1	RES1	0.000	
20	 C14	26.126	47.844	19.577	C.2	1	RES1	0.000	
21	 C15	25.714	48.833	20.495	C.2	1	RES1	0.000	
22	 C16	23.785	49.423	19.081	C.3	1	RES1	0.000	
23	 C17	26.417	49.061	21.673	C.2	1	RES1	0.000	
24	 C18	25.993	50.148	22.661	C.3	1	RES1	0.000	
25	 C19	25.095	50.539	24.885	C.3	1	RES1	0.000	
26	 C53	23.744	49.378	23.251	C.3	1	RES1	0.000	
@<TRIPOS>BOND
1 2 12 ar
2 2 13 1
3 2 14 ar
4 1 3 1
5 3 4 1
6 4 7 ar
7 6 14 2
8 7 10 ar
9 8 26 1
10 10 11 1
11 11 12 ar
12 14 15 ar
13 5 16 ar
14 15 16 ar
15 5 17 ar
16 17 18 ar
17 18 19 ar
18 11 19 ar
19 15 19 ar
20 10 20 ar
21 20 21 ar
22 9 21 1
23 21 23 ar
24 9 22 1
25 4 23 ar
26 23 24 1
27 8 24 1
28 8 25 1
@<TRIPOS>SUBSTRUCTURE
1	RES1	1	GROUP	1 ****	RES
