# created with PyMOL 2.5.2
@<TRIPOS>MOLECULE
BRD7_6V1E_TargetProtein
26 28 1                 
SMALL
USER_CHARGES
@<TRIPOS>ATOM
1	  C1	23.791	49.401	19.116	C.3	1	RES1	0.000	
2	  N1	27.112	43.879	17.916	N.2	1	RES1	0.000	
3	  O1	24.569	49.664	20.304	O.3	1	RES1	0.000	
4	  C2	25.692	48.830	20.492	C.2	1	RES1	0.000	
5	  N2	31.197	46.074	16.430	N.2	1	RES1	0.000	
6	  O2	28.506	42.938	16.324	O.2	1	RES1	0.000	
7	  C3	26.116	47.822	19.573	C.2	1	RES1	0.000	
8	  N3	25.127	49.628	23.725	N.3	1	RES1	0.000	
9	  O3	28.279	48.552	23.131	O.3	1	RES1	0.000	
10	  C4	27.243	47.071	19.835	C.2	1	RES1	0.000	
11	  C5	27.668	46.020	18.879	C.2	1	RES1	0.000	
12	  C6	26.845	44.934	18.770	C.2	1	RES1	0.000	
13	  C7	26.130	42.790	17.897	C.3	1	RES1	0.000	
14	  C8	28.234	43.838	17.087	C.2	1	RES1	0.000	
15	  C9	29.152	45.006	17.180	C.2	1	RES1	0.000	
16	 C10	30.318	45.057	16.376	C.2	1	RES1	0.000	
17	 C11	30.902	47.077	17.273	C.2	1	RES1	0.000	
18	 C12	29.801	47.134	18.101	C.2	1	RES1	0.000	
19	 C13	28.858	46.059	18.064	C.2	1	RES1	0.000	
20	 C14	27.980	47.292	21.010	C.2	1	RES1	0.000	
21	 C15	27.585	48.271	21.930	C.2	1	RES1	0.000	
22	 C16	29.326	47.664	23.469	C.3	1	RES1	0.000	
23	 C17	26.443	49.050	21.670	C.2	1	RES1	0.000	
24	 C18	25.988	50.152	22.645	C.3	1	RES1	0.000	
25	 C19	25.024	50.499	24.882	C.3	1	RES1	0.000	
26	 C53	23.752	49.370	23.196	C.3	1	RES1	0.000	
@<TRIPOS>BOND
1 2 12 ar
2 2 13 1
3 2 14 ar
4 1 3 1
5 3 4 1
6 4 7 ar
7 6 14 2
8 7 10 ar
9 8 26 1
10 10 11 1
11 11 12 ar
12 14 15 ar
13 5 16 ar
14 15 16 ar
15 5 17 ar
16 17 18 ar
17 18 19 ar
18 11 19 ar
19 15 19 ar
20 10 20 ar
21 20 21 ar
22 9 21 1
23 21 23 ar
24 9 22 1
25 4 23 ar
26 23 24 1
27 8 24 1
28 8 25 1
@<TRIPOS>SUBSTRUCTURE
1	RES1	1	GROUP	1 ****	RES
