# created with PyMOL 2.5.2
@<TRIPOS>MOLECULE
BRD7_5MQ1_TargetProtein
26 28 1                 
SMALL
USER_CHARGES
@<TRIPOS>ATOM
1	  C1	18.210	155.984	41.927	C.3	1	RES1	0.000	
2	  N1	12.823	152.286	44.943	N.2	1	RES1	0.000	
3	  O1	18.988	155.046	42.652	O.3	1	RES1	0.000	
4	  C2	18.335	154.256	43.592	C.2	1	RES1	0.000	
5	  N2	12.600	157.003	46.078	N.2	1	RES1	0.000	
6	  O2	10.830	153.329	45.420	O.2	1	RES1	0.000	
7	  C3	16.950	154.295	43.806	C.2	1	RES1	0.000	
8	  N3	21.044	152.807	42.853	N.3	1	RES1	0.000	
9	  O3	16.491	151.824	46.499	O.3	1	RES1	0.000	
10	  C4	16.349	153.473	44.788	C.2	1	RES1	0.000	
11	  C5	14.907	153.549	44.982	C.2	1	RES1	0.000	
12	  C6	14.216	152.388	44.813	C.2	1	RES1	0.000	
13	  C7	12.226	150.968	44.714	C.3	1	RES1	0.000	
14	  C8	12.025	153.369	45.286	C.2	1	RES1	0.000	
15	  C9	12.762	154.651	45.500	C.2	1	RES1	0.000	
16	 C10	12.030	155.809	45.865	C.2	1	RES1	0.000	
17	 C11	13.947	157.079	45.911	C.2	1	RES1	0.000	
18	 C12	14.732	155.977	45.554	C.2	1	RES1	0.000	
19	 C13	14.121	154.737	45.344	C.2	1	RES1	0.000	
20	 C14	17.187	152.613	45.541	C.2	1	RES1	0.000	
21	 C15	17.214	150.729	47.063	C.3	1	RES1	0.000	
22	 C16	18.550	152.584	45.348	C.2	1	RES1	0.000	
23	 C17	19.155	153.407	44.376	C.2	1	RES1	0.000	
24	 C18	20.636	153.346	44.171	C.3	1	RES1	0.000	
25	 C19	20.363	153.462	41.736	C.3	1	RES1	0.000	
26	 C53	22.495	152.881	42.660	C.3	1	RES1	0.000	
@<TRIPOS>BOND
1 2 12 ar
2 2 13 1
3 2 14 ar
4 1 3 1
5 3 4 1
6 4 7 ar
7 6 14 2
8 7 10 ar
9 8 26 1
10 10 11 1
11 11 12 ar
12 14 15 ar
13 5 16 ar
14 15 16 ar
15 5 17 ar
16 17 18 ar
17 18 19 ar
18 11 19 ar
19 15 19 ar
20 9 20 1
21 10 20 ar
22 20 22 ar
23 9 21 1
24 22 23 ar
25 4 23 ar
26 23 24 1
27 8 24 1
28 8 25 1
@<TRIPOS>SUBSTRUCTURE
1	RES1	1	GROUP	1 ****	RES
