# created with PyMOL 2.5.2
@<TRIPOS>MOLECULE
BRD7_6V1E_TargetProtein
26 28 1                 
SMALL
USER_CHARGES
@<TRIPOS>ATOM
1	  C1	29.282	47.814	23.488	C.3	1	RES1	0.000	
2	  N1	27.094	43.923	18.032	N.2	1	RES1	0.000	
3	  O1	28.225	48.704	23.079	O.3	1	RES1	0.000	
4	  C2	27.545	48.421	21.907	C.2	1	RES1	0.000	
5	  N2	31.177	46.047	16.493	N.2	1	RES1	0.000	
6	  O2	28.472	42.904	16.451	O.2	1	RES1	0.000	
7	  C3	27.951	47.399	21.022	C.2	1	RES1	0.000	
8	  N3	25.096	49.852	23.665	N.3	1	RES1	0.000	
9	  O3	24.550	49.764	20.227	O.3	1	RES1	0.000	
10	  C4	27.212	47.150	19.870	C.2	1	RES1	0.000	
11	  C5	27.635	46.061	18.938	C.2	1	RES1	0.000	
12	  C6	26.819	45.005	18.857	C.2	1	RES1	0.000	
13	  C7	26.105	42.813	18.031	C.3	1	RES1	0.000	
14	  C8	28.212	43.824	17.198	C.2	1	RES1	0.000	
15	  C9	29.141	45.010	17.257	C.2	1	RES1	0.000	
16	 C10	30.286	45.032	16.487	C.2	1	RES1	0.000	
17	 C11	30.892	47.075	17.310	C.2	1	RES1	0.000	
18	 C12	29.772	47.138	18.123	C.2	1	RES1	0.000	
19	 C13	28.861	46.073	18.096	C.2	1	RES1	0.000	
20	 C14	26.100	47.914	19.568	C.2	1	RES1	0.000	
21	 C15	25.662	48.944	20.452	C.2	1	RES1	0.000	
22	 C16	23.756	49.465	19.062	C.3	1	RES1	0.000	
23	 C17	26.408	49.204	21.606	C.2	1	RES1	0.000	
24	 C18	26.005	50.303	22.562	C.3	1	RES1	0.000	
25	 C19	25.643	48.658	24.320	C.3	1	RES1	0.000	
26	 C55	23.742	49.584	23.178	C.3	1	RES1	0.000	
@<TRIPOS>BOND
1 2 12 ar
2 2 13 1
3 2 14 ar
4 1 3 1
5 3 4 1
6 4 7 ar
7 6 14 2
8 7 10 ar
9 8 26 1
10 10 11 1
11 11 12 ar
12 14 15 ar
13 5 16 ar
14 15 16 ar
15 5 17 ar
16 17 18 ar
17 18 19 ar
18 11 19 ar
19 15 19 ar
20 10 20 ar
21 20 21 ar
22 9 21 1
23 21 23 ar
24 9 22 1
25 4 23 ar
26 23 24 1
27 8 24 1
28 8 25 1
@<TRIPOS>SUBSTRUCTURE
1	RES1	1	GROUP	1 ****	RES
