# created with PyMOL 2.5.2
@<TRIPOS>MOLECULE
BRD7_5MQ1_TargetProtein
26 28 1                 
SMALL
USER_CHARGES
@<TRIPOS>ATOM
1	  C1	18.188	156.262	42.045	C.3	1	RES1	0.000	
2	  N1	12.879	152.294	44.954	N.2	1	RES1	0.000	
3	  O1	18.988	155.260	42.711	O.3	1	RES1	0.000	
4	  C2	18.326	154.407	43.610	C.2	1	RES1	0.000	
5	  N2	12.557	156.996	46.107	N.2	1	RES1	0.000	
6	  O2	10.828	153.278	45.470	O.2	1	RES1	0.000	
7	  C3	16.936	154.405	43.844	C.2	1	RES1	0.000	
8	  N3	21.023	153.115	42.707	N.3	1	RES1	0.000	
9	  O3	16.494	151.795	46.372	O.3	1	RES1	0.000	
10	  C4	16.356	153.534	44.731	C.2	1	RES1	0.000	
11	  C5	14.884	153.591	44.961	C.2	1	RES1	0.000	
12	  C6	14.213	152.442	44.756	C.2	1	RES1	0.000	
13	  C7	12.279	150.979	44.680	C.3	1	RES1	0.000	
14	  C8	12.039	153.337	45.287	C.2	1	RES1	0.000	
15	  C9	12.718	154.653	45.514	C.2	1	RES1	0.000	
16	 C10	11.991	155.775	45.904	C.2	1	RES1	0.000	
17	 C11	13.880	157.092	45.978	C.2	1	RES1	0.000	
18	 C12	14.712	156.009	45.587	C.2	1	RES1	0.000	
19	 C13	14.121	154.773	45.368	C.2	1	RES1	0.000	
20	 C14	17.156	152.612	45.449	C.2	1	RES1	0.000	
21	 C15	17.279	150.696	46.929	C.3	1	RES1	0.000	
22	 C16	18.569	152.635	45.214	C.2	1	RES1	0.000	
23	 C17	19.144	153.494	44.320	C.2	1	RES1	0.000	
24	 C18	20.635	153.443	44.107	C.3	1	RES1	0.000	
25	 C19	22.501	153.159	42.550	C.3	1	RES1	0.000	
26	 C55	20.487	151.805	42.264	C.3	1	RES1	0.000	
@<TRIPOS>BOND
1 2 12 ar
2 2 13 1
3 2 14 ar
4 1 3 1
5 3 4 1
6 4 7 ar
7 6 14 2
8 7 10 ar
9 8 26 1
10 10 11 1
11 11 12 ar
12 14 15 ar
13 5 16 ar
14 15 16 ar
15 5 17 ar
16 17 18 ar
17 18 19 ar
18 11 19 ar
19 15 19 ar
20 9 20 1
21 10 20 ar
22 20 22 ar
23 9 21 1
24 22 23 ar
25 4 23 ar
26 23 24 1
27 8 24 1
28 8 25 1
@<TRIPOS>SUBSTRUCTURE
1	RES1	1	GROUP	1 ****	RES
