# created with PyMOL 2.5.2
@<TRIPOS>MOLECULE
BRD7_6V1E_TargetProtein
26 28 1                 
SMALL
USER_CHARGES
@<TRIPOS>ATOM
1	  C1	23.742	49.360	18.924	C.3	1	RES1	0.000	
2	  N1	27.147	43.856	17.951	N.2	1	RES1	0.000	
3	  O1	24.502	49.645	20.103	O.3	1	RES1	0.000	
4	  C2	25.606	48.848	20.379	C.2	1	RES1	0.000	
5	  N2	31.224	46.076	16.500	N.2	1	RES1	0.000	
6	  O2	28.591	42.883	16.393	O.2	1	RES1	0.000	
7	  C3	26.041	47.833	19.496	C.2	1	RES1	0.000	
8	  N3	24.864	49.724	23.549	N.3	1	RES1	0.000	
9	  O3	28.081	48.670	23.063	O.3	1	RES1	0.000	
10	  C4	27.189	47.083	19.826	C.2	1	RES1	0.000	
11	  C5	27.662	46.019	18.883	C.2	1	RES1	0.000	
12	  C6	26.858	44.948	18.789	C.2	1	RES1	0.000	
13	  C7	26.221	42.750	17.934	C.3	1	RES1	0.000	
14	  C8	28.299	43.795	17.155	C.2	1	RES1	0.000	
15	  C9	29.204	44.980	17.229	C.2	1	RES1	0.000	
16	 C10	30.372	45.052	16.469	C.2	1	RES1	0.000	
17	 C11	30.911	47.114	17.313	C.2	1	RES1	0.000	
18	 C12	29.776	47.131	18.119	C.2	1	RES1	0.000	
19	 C13	28.888	46.062	18.053	C.2	1	RES1	0.000	
20	 C14	27.856	47.344	21.001	C.2	1	RES1	0.000	
21	 C15	27.432	48.352	21.869	C.2	1	RES1	0.000	
22	 C16	29.164	47.796	23.509	C.3	1	RES1	0.000	
23	 C17	26.297	49.126	21.558	C.2	1	RES1	0.000	
24	 C18	25.801	50.203	22.468	C.3	1	RES1	0.000	
25	 C19	24.510	50.833	24.436	C.3	1	RES1	0.000	
26	 C51	25.399	48.590	24.303	C.3	1	RES1	0.000	
@<TRIPOS>BOND
1 2 12 ar
2 2 13 1
3 2 14 ar
4 1 3 1
5 3 4 1
6 4 7 ar
7 6 14 2
8 7 10 ar
9 8 26 1
10 10 11 1
11 11 12 ar
12 14 15 ar
13 5 16 ar
14 15 16 ar
15 5 17 ar
16 17 18 ar
17 18 19 ar
18 11 19 ar
19 15 19 ar
20 10 20 ar
21 20 21 ar
22 9 21 1
23 21 23 ar
24 9 22 1
25 4 23 ar
26 23 24 1
27 8 24 1
28 8 25 1
@<TRIPOS>SUBSTRUCTURE
1	RES1	1	GROUP	1 ****	RES
