# created with PyMOL 2.5.2
@<TRIPOS>MOLECULE
BRD7_5MQ1_TargetProtein
26 28 1                 
SMALL
USER_CHARGES
@<TRIPOS>ATOM
1	  C1	18.200	155.974	41.922	C.3	1	RES1	0.000	
2	  N1	12.851	152.280	44.950	N.2	1	RES1	0.000	
3	  O1	18.978	155.021	42.621	O.3	1	RES1	0.000	
4	  C2	18.343	154.247	43.600	C.2	1	RES1	0.000	
5	  N2	12.602	156.991	46.066	N.2	1	RES1	0.000	
6	  O2	10.811	153.336	45.399	O.2	1	RES1	0.000	
7	  C3	16.949	154.270	43.812	C.2	1	RES1	0.000	
8	  N3	21.056	152.807	42.834	N.3	1	RES1	0.000	
9	  O3	16.492	151.842	46.518	O.3	1	RES1	0.000	
10	  C4	16.347	153.486	44.790	C.2	1	RES1	0.000	
11	  C5	14.897	153.528	44.984	C.2	1	RES1	0.000	
12	  C6	14.221	152.388	44.792	C.2	1	RES1	0.000	
13	  C7	12.217	150.995	44.699	C.3	1	RES1	0.000	
14	  C8	12.018	153.383	45.297	C.2	1	RES1	0.000	
15	  C9	12.744	154.657	45.503	C.2	1	RES1	0.000	
16	 C10	11.996	155.816	45.868	C.2	1	RES1	0.000	
17	 C11	13.947	157.078	45.934	C.2	1	RES1	0.000	
18	 C12	14.730	155.987	45.577	C.2	1	RES1	0.000	
19	 C13	14.130	154.750	45.362	C.2	1	RES1	0.000	
20	 C14	17.166	152.596	45.542	C.2	1	RES1	0.000	
21	 C15	17.250	150.735	47.108	C.3	1	RES1	0.000	
22	 C16	18.542	152.569	45.323	C.2	1	RES1	0.000	
23	 C17	19.150	153.403	44.339	C.2	1	RES1	0.000	
24	 C18	20.629	153.324	44.165	C.3	1	RES1	0.000	
25	 C19	20.400	153.503	41.727	C.3	1	RES1	0.000	
26	 C51	22.516	152.870	42.686	C.3	1	RES1	0.000	
@<TRIPOS>BOND
1 2 12 ar
2 2 13 1
3 2 14 ar
4 1 3 1
5 3 4 1
6 4 7 ar
7 6 14 2
8 7 10 ar
9 8 26 1
10 10 11 1
11 11 12 ar
12 14 15 ar
13 5 16 ar
14 15 16 ar
15 5 17 ar
16 17 18 ar
17 18 19 ar
18 11 19 ar
19 15 19 ar
20 9 20 1
21 10 20 ar
22 20 22 ar
23 9 21 1
24 22 23 ar
25 4 23 ar
26 23 24 1
27 8 24 1
28 8 25 1
@<TRIPOS>SUBSTRUCTURE
1	RES1	1	GROUP	1 ****	RES
