# created with PyMOL 2.5.2
@<TRIPOS>MOLECULE
BRD7_6V1E_TargetProtein
26 28 1                 
SMALL
USER_CHARGES
@<TRIPOS>ATOM
1	  C1	29.320	47.630	23.491	C.3	1	RES1	0.000	
2	  N1	27.112	43.889	17.903	N.2	1	RES1	0.000	
3	  O1	28.258	48.544	23.131	O.3	1	RES1	0.000	
4	  C2	27.555	48.263	21.936	C.2	1	RES1	0.000	
5	  N2	31.203	46.078	16.428	N.2	1	RES1	0.000	
6	  O2	28.512	42.922	16.336	O.2	1	RES1	0.000	
7	  C3	27.981	47.285	21.001	C.2	1	RES1	0.000	
8	  N3	25.095	49.615	23.727	N.3	1	RES1	0.000	
9	  O3	24.560	49.655	20.306	O.3	1	RES1	0.000	
10	  C4	27.230	47.054	19.808	C.2	1	RES1	0.000	
11	  C5	27.650	46.029	18.870	C.2	1	RES1	0.000	
12	  C6	26.865	44.952	18.758	C.2	1	RES1	0.000	
13	  C7	26.161	42.763	17.899	C.3	1	RES1	0.000	
14	  C8	28.234	43.841	17.082	C.2	1	RES1	0.000	
15	  C9	29.158	45.004	17.190	C.2	1	RES1	0.000	
16	 C10	30.331	45.043	16.385	C.2	1	RES1	0.000	
17	 C11	30.912	47.079	17.300	C.2	1	RES1	0.000	
18	 C12	29.762	47.139	18.082	C.2	1	RES1	0.000	
19	 C13	28.878	46.058	18.050	C.2	1	RES1	0.000	
20	 C14	26.094	47.852	19.575	C.2	1	RES1	0.000	
21	 C15	25.704	48.830	20.486	C.2	1	RES1	0.000	
22	 C16	23.772	49.411	19.101	C.3	1	RES1	0.000	
23	 C17	26.428	49.045	21.658	C.2	1	RES1	0.000	
24	 C18	26.006	50.123	22.671	C.3	1	RES1	0.000	
25	 C19	25.127	50.537	24.853	C.3	1	RES1	0.000	
26	 C53	23.728	49.432	23.248	C.3	1	RES1	0.000	
@<TRIPOS>BOND
1 2 12 ar
2 2 13 1
3 2 14 ar
4 1 3 1
5 3 4 1
6 4 7 ar
7 6 14 2
8 7 10 ar
9 8 26 1
10 10 11 1
11 11 12 ar
12 14 15 ar
13 5 16 ar
14 15 16 ar
15 5 17 ar
16 17 18 ar
17 18 19 ar
18 11 19 ar
19 15 19 ar
20 10 20 ar
21 20 21 ar
22 9 21 1
23 21 23 ar
24 9 22 1
25 4 23 ar
26 23 24 1
27 8 24 1
28 8 25 1
@<TRIPOS>SUBSTRUCTURE
1	RES1	1	GROUP	1 ****	RES
