# created with PyMOL 2.5.2
@<TRIPOS>MOLECULE
BRD7_5MQ1_TargetProtein
26 28 1                 
SMALL
USER_CHARGES
@<TRIPOS>ATOM
1	  C1	18.151	156.265	42.062	C.3	1	RES1	0.000	
2	  N1	12.881	152.293	44.918	N.2	1	RES1	0.000	
3	  O1	18.981	155.286	42.724	O.3	1	RES1	0.000	
4	  C2	18.311	154.402	43.626	C.2	1	RES1	0.000	
5	  N2	12.547	157.002	46.130	N.2	1	RES1	0.000	
6	  O2	10.835	153.287	45.453	O.2	1	RES1	0.000	
7	  C3	16.938	154.411	43.837	C.2	1	RES1	0.000	
8	  N3	21.001	153.103	42.691	N.3	1	RES1	0.000	
9	  O3	16.526	151.775	46.393	O.3	1	RES1	0.000	
10	  C4	16.357	153.529	44.756	C.2	1	RES1	0.000	
11	  C5	14.882	153.567	44.964	C.2	1	RES1	0.000	
12	  C6	14.240	152.427	44.749	C.2	1	RES1	0.000	
13	  C7	12.286	150.983	44.671	C.3	1	RES1	0.000	
14	  C8	12.043	153.339	45.291	C.2	1	RES1	0.000	
15	  C9	12.728	154.676	45.493	C.2	1	RES1	0.000	
16	 C10	11.976	155.778	45.879	C.2	1	RES1	0.000	
17	 C11	13.897	157.085	45.968	C.2	1	RES1	0.000	
18	 C12	14.704	156.018	45.615	C.2	1	RES1	0.000	
19	 C13	14.116	154.755	45.353	C.2	1	RES1	0.000	
20	 C14	17.177	152.646	45.462	C.2	1	RES1	0.000	
21	 C15	17.290	150.694	46.890	C.3	1	RES1	0.000	
22	 C16	18.578	152.634	45.236	C.2	1	RES1	0.000	
23	 C17	19.165	153.534	44.322	C.2	1	RES1	0.000	
24	 C18	20.662	153.467	44.099	C.3	1	RES1	0.000	
25	 C19	22.466	153.122	42.510	C.3	1	RES1	0.000	
26	 C53	20.446	151.765	42.325	C.3	1	RES1	0.000	
@<TRIPOS>BOND
1 2 12 ar
2 2 13 1
3 2 14 ar
4 1 3 1
5 3 4 1
6 4 7 ar
7 6 14 2
8 7 10 ar
9 8 26 1
10 10 11 1
11 11 12 ar
12 14 15 ar
13 5 16 ar
14 15 16 ar
15 5 17 ar
16 17 18 ar
17 18 19 ar
18 11 19 ar
19 15 19 ar
20 9 20 1
21 10 20 ar
22 20 22 ar
23 9 21 1
24 22 23 ar
25 4 23 ar
26 23 24 1
27 8 24 1
28 8 25 1
@<TRIPOS>SUBSTRUCTURE
1	RES1	1	GROUP	1 ****	RES
