# created with PyMOL 2.5.2
@<TRIPOS>MOLECULE
BRD7_6V1E_TargetProtein
26 28 1                 
SMALL
USER_CHARGES
@<TRIPOS>ATOM
1	  C1	29.268	47.792	23.508	C.3	1	RES1	0.000	
2	  N1	27.084	43.897	18.028	N.2	1	RES1	0.000	
3	  O1	28.209	48.690	23.104	O.3	1	RES1	0.000	
4	  C2	27.529	48.406	21.900	C.2	1	RES1	0.000	
5	  N2	31.165	46.039	16.481	N.2	1	RES1	0.000	
6	  O2	28.493	42.878	16.487	O.2	1	RES1	0.000	
7	  C3	27.951	47.407	21.002	C.2	1	RES1	0.000	
8	  N3	25.100	49.849	23.651	N.3	1	RES1	0.000	
9	  O3	24.567	49.777	20.233	O.3	1	RES1	0.000	
10	  C4	27.206	47.158	19.851	C.2	1	RES1	0.000	
11	  C5	27.627	46.101	18.912	C.2	1	RES1	0.000	
12	  C6	26.818	44.996	18.847	C.2	1	RES1	0.000	
13	  C7	26.144	42.803	18.050	C.3	1	RES1	0.000	
14	  C8	28.203	43.825	17.217	C.2	1	RES1	0.000	
15	  C9	29.126	45.001	17.266	C.2	1	RES1	0.000	
16	 C10	30.284	45.026	16.478	C.2	1	RES1	0.000	
17	 C11	30.884	47.095	17.278	C.2	1	RES1	0.000	
18	 C12	29.766	47.163	18.112	C.2	1	RES1	0.000	
19	 C13	28.851	46.096	18.103	C.2	1	RES1	0.000	
20	 C14	26.098	47.908	19.573	C.2	1	RES1	0.000	
21	 C15	25.694	48.954	20.444	C.2	1	RES1	0.000	
22	 C16	23.782	49.485	19.061	C.3	1	RES1	0.000	
23	 C17	26.422	49.189	21.630	C.2	1	RES1	0.000	
24	 C18	25.994	50.298	22.572	C.3	1	RES1	0.000	
25	 C19	23.735	49.588	23.183	C.3	1	RES1	0.000	
26	 C55	25.638	48.653	24.307	C.3	1	RES1	0.000	
@<TRIPOS>BOND
1 2 12 ar
2 2 13 1
3 2 14 ar
4 1 3 1
5 3 4 1
6 4 7 ar
7 6 14 2
8 7 10 ar
9 8 26 1
10 10 11 1
11 11 12 ar
12 14 15 ar
13 5 16 ar
14 15 16 ar
15 5 17 ar
16 17 18 ar
17 18 19 ar
18 11 19 ar
19 15 19 ar
20 10 20 ar
21 20 21 ar
22 9 21 1
23 21 23 ar
24 9 22 1
25 4 23 ar
26 23 24 1
27 8 24 1
28 8 25 1
@<TRIPOS>SUBSTRUCTURE
1	RES1	1	GROUP	1 ****	RES
