# created with PyMOL 2.5.2
@<TRIPOS>MOLECULE
CDK6_2EUF_TargetProtein
33 37 1                 
SMALL
USER_CHARGES
@<TRIPOS>ATOM
1	  C1	34.712	27.632	59.521	C.3	1	RES1	0.000	
2	  N1	31.402	22.944	63.548	N.2	1	RES1	0.000	
3	  O1	32.674	28.707	60.109	O.2	1	RES1	0.000	
4	  C2	33.294	27.630	59.978	C.2	1	RES1	0.000	
5	  N2	30.250	20.995	62.763	N.pl3	1	RES1	0.000	
6	  C3	32.663	26.351	60.335	C.2	1	RES1	0.000	
7	  N3	27.824	16.881	59.715	N.pl3	1	RES1	0.000	
8	  C4	32.643	25.980	61.636	C.2	1	RES1	0.000	
9	  N4	26.831	14.767	57.998	N.3	1	RES1	0.000	
10	  C5	33.211	26.791	62.795	C.3	1	RES1	0.000	
11	  C6	32.041	24.669	61.971	C.2	1	RES1	0.000	
12	  C7	31.973	24.120	63.253	C.2	1	RES1	0.000	
13	  C8	30.850	22.236	62.542	C.2	1	RES1	0.000	
14	  N8	29.490	18.818	62.521	N.2	1	RES1	0.000	
15	  C9	29.631	20.028	61.962	C.2	1	RES1	0.000	
16	  N9	30.847	22.673	61.269	N.2	1	RES1	0.000	
17	 C10	29.234	20.285	60.654	C.2	1	RES1	0.000	
18	 N10	31.424	24.313	59.633	N.2	1	RES1	0.000	
19	 C11	28.652	19.252	59.895	C.2	1	RES1	0.000	
20	 O11	32.125	25.907	58.088	O.2	1	RES1	0.000	
21	 C12	28.428	17.979	60.445	C.2	1	RES1	0.000	
22	 C13	28.579	15.614	59.585	C.3	1	RES1	0.000	
23	 C14	27.657	14.466	59.187	C.3	1	RES1	0.000	
24	 C38	26.001	15.952	58.326	C.3	1	RES1	0.000	
25	 C39	26.818	17.163	58.669	C.3	1	RES1	0.000	
26	 C40	28.903	17.851	61.764	C.2	1	RES1	0.000	
27	 C41	31.429	23.871	60.984	C.2	1	RES1	0.000	
28	 C42	30.812	23.504	58.568	C.3	1	RES1	0.000	
29	 C43	29.896	24.254	57.557	C.3	1	RES1	0.000	
30	 C44	28.602	23.503	57.514	C.3	1	RES1	0.000	
31	 C45	28.972	22.083	57.935	C.3	1	RES1	0.000	
32	 C46	29.985	22.331	59.053	C.3	1	RES1	0.000	
33	 C47	32.049	25.514	59.253	C.2	1	RES1	0.000	
@<TRIPOS>BOND
1 1 4 1
2 2 12 ar
3 2 13 ar
4 3 4 2
5 4 6 1
6 5 13 1
7 5 15 1
8 6 8 ar
9 6 33 ar
10 7 25 1
11 8 10 1
12 8 11 ar
13 11 12 ar
14 13 16 ar
15 14 15 ar
16 15 17 ar
17 17 19 ar
18 18 27 ar
19 18 28 1
20 18 33 ar
21 19 21 ar
22 20 33 2
23 7 21 1
24 21 26 ar
25 7 22 1
26 22 23 1
27 9 23 1
28 9 24 1
29 24 25 1
30 14 26 ar
31 11 27 ar
32 16 27 ar
33 28 29 1
34 28 32 1
35 29 30 1
36 30 31 1
37 31 32 1
@<TRIPOS>SUBSTRUCTURE
1	RES1	1	GROUP	1 ****	RES
