# created with PyMOL 2.5.2
@<TRIPOS>MOLECULE
BRD7_5MQ1_TargetProtein
26 28 1                 
SMALL
USER_CHARGES
@<TRIPOS>ATOM
1	  C1	18.147	156.232	42.021	C.3	1	RES1	0.000	
2	  N1	12.864	152.297	44.898	N.2	1	RES1	0.000	
3	  O1	18.985	155.237	42.684	O.3	1	RES1	0.000	
4	  C2	18.333	154.404	43.580	C.2	1	RES1	0.000	
5	  N2	12.536	156.988	46.145	N.2	1	RES1	0.000	
6	  O2	10.825	153.288	45.423	O.2	1	RES1	0.000	
7	  C3	16.932	154.411	43.836	C.2	1	RES1	0.000	
8	  N3	21.009	153.134	42.697	N.3	1	RES1	0.000	
9	  O3	16.535	151.824	46.403	O.3	1	RES1	0.000	
10	  C4	16.383	153.560	44.760	C.2	1	RES1	0.000	
11	  C5	14.905	153.577	44.990	C.2	1	RES1	0.000	
12	  C6	14.231	152.422	44.746	C.2	1	RES1	0.000	
13	  C7	12.262	150.981	44.644	C.3	1	RES1	0.000	
14	  C8	12.047	153.366	45.272	C.2	1	RES1	0.000	
15	  C9	12.715	154.661	45.529	C.2	1	RES1	0.000	
16	 C10	11.968	155.784	45.900	C.2	1	RES1	0.000	
17	 C11	13.883	157.078	45.994	C.2	1	RES1	0.000	
18	 C12	14.697	156.004	45.641	C.2	1	RES1	0.000	
19	 C13	14.106	154.754	45.380	C.2	1	RES1	0.000	
20	 C14	17.198	152.659	45.491	C.2	1	RES1	0.000	
21	 C15	17.287	150.695	46.899	C.3	1	RES1	0.000	
22	 C16	18.558	152.622	45.253	C.2	1	RES1	0.000	
23	 C17	19.153	153.500	44.304	C.2	1	RES1	0.000	
24	 C18	20.646	153.461	44.084	C.3	1	RES1	0.000	
25	 C19	22.493	153.112	42.539	C.3	1	RES1	0.000	
26	 C55	20.488	151.802	42.310	C.3	1	RES1	0.000	
@<TRIPOS>BOND
1 2 12 ar
2 2 13 1
3 2 14 ar
4 1 3 1
5 3 4 1
6 4 7 ar
7 6 14 2
8 7 10 ar
9 8 26 1
10 10 11 1
11 11 12 ar
12 14 15 ar
13 5 16 ar
14 15 16 ar
15 5 17 ar
16 17 18 ar
17 18 19 ar
18 11 19 ar
19 15 19 ar
20 9 20 1
21 10 20 ar
22 20 22 ar
23 9 21 1
24 22 23 ar
25 4 23 ar
26 23 24 1
27 8 24 1
28 8 25 1
@<TRIPOS>SUBSTRUCTURE
1	RES1	1	GROUP	1 ****	RES
