# created with PyMOL 2.5.2
@<TRIPOS>MOLECULE
BRD7_6V1E_TargetProtein
26 28 1                 
SMALL
USER_CHARGES
@<TRIPOS>ATOM
1	  C1	23.724	49.383	18.904	C.3	1	RES1	0.000	
2	  N1	27.146	43.861	17.949	N.2	1	RES1	0.000	
3	  O1	24.488	49.655	20.091	O.3	1	RES1	0.000	
4	  C2	25.602	48.859	20.347	C.2	1	RES1	0.000	
5	  N2	31.236	46.083	16.533	N.2	1	RES1	0.000	
6	  O2	28.612	42.878	16.424	O.2	1	RES1	0.000	
7	  C3	26.047	47.845	19.466	C.2	1	RES1	0.000	
8	  N3	24.883	49.730	23.537	N.3	1	RES1	0.000	
9	  O3	28.079	48.673	23.073	O.3	1	RES1	0.000	
10	  C4	27.161	47.106	19.790	C.2	1	RES1	0.000	
11	  C5	27.645	46.023	18.877	C.2	1	RES1	0.000	
12	  C6	26.849	44.940	18.771	C.2	1	RES1	0.000	
13	  C7	26.208	42.732	17.929	C.3	1	RES1	0.000	
14	  C8	28.293	43.795	17.169	C.2	1	RES1	0.000	
15	  C9	29.200	44.990	17.238	C.2	1	RES1	0.000	
16	 C10	30.382	45.045	16.506	C.2	1	RES1	0.000	
17	 C11	30.896	47.107	17.336	C.2	1	RES1	0.000	
18	 C12	29.768	47.158	18.125	C.2	1	RES1	0.000	
19	 C13	28.890	46.062	18.081	C.2	1	RES1	0.000	
20	 C14	27.853	47.331	20.980	C.2	1	RES1	0.000	
21	 C15	27.421	48.355	21.861	C.2	1	RES1	0.000	
22	 C16	29.147	47.799	23.491	C.3	1	RES1	0.000	
23	 C17	26.285	49.117	21.544	C.2	1	RES1	0.000	
24	 C18	25.821	50.208	22.493	C.3	1	RES1	0.000	
25	 C19	24.567	50.770	24.546	C.3	1	RES1	0.000	
26	 C52	25.435	48.567	24.214	C.3	1	RES1	0.000	
@<TRIPOS>BOND
1 2 12 ar
2 2 13 1
3 2 14 ar
4 1 3 1
5 3 4 1
6 4 7 ar
7 6 14 2
8 7 10 ar
9 8 26 1
10 10 11 1
11 11 12 ar
12 14 15 ar
13 5 16 ar
14 15 16 ar
15 5 17 ar
16 17 18 ar
17 18 19 ar
18 11 19 ar
19 15 19 ar
20 10 20 ar
21 20 21 ar
22 9 21 1
23 21 23 ar
24 9 22 1
25 4 23 ar
26 23 24 1
27 8 24 1
28 8 25 1
@<TRIPOS>SUBSTRUCTURE
1	RES1	1	GROUP	1 ****	RES
