# created with PyMOL 2.5.2
@<TRIPOS>MOLECULE
BRD7_5MQ1_TargetProtein
26 28 1                 
SMALL
USER_CHARGES
@<TRIPOS>ATOM
1	  C1	18.238	156.008	41.909	C.3	1	RES1	0.000	
2	  N1	12.835	152.291	44.957	N.2	1	RES1	0.000	
3	  O1	19.032	155.019	42.629	O.3	1	RES1	0.000	
4	  C2	18.355	154.258	43.610	C.2	1	RES1	0.000	
5	  N2	12.574	157.031	46.070	N.2	1	RES1	0.000	
6	  O2	10.829	153.306	45.453	O.2	1	RES1	0.000	
7	  C3	16.950	154.331	43.824	C.2	1	RES1	0.000	
8	  N3	21.039	152.767	42.813	N.3	1	RES1	0.000	
9	  O3	16.461	151.823	46.518	O.3	1	RES1	0.000	
10	  C4	16.352	153.496	44.781	C.2	1	RES1	0.000	
11	  C5	14.920	153.567	44.972	C.2	1	RES1	0.000	
12	  C6	14.222	152.390	44.806	C.2	1	RES1	0.000	
13	  C7	12.251	150.975	44.713	C.3	1	RES1	0.000	
14	  C8	12.031	153.357	45.298	C.2	1	RES1	0.000	
15	  C9	12.739	154.632	45.528	C.2	1	RES1	0.000	
16	 C10	12.004	155.804	45.867	C.2	1	RES1	0.000	
17	 C11	13.921	157.067	45.882	C.2	1	RES1	0.000	
18	 C12	14.707	155.982	45.556	C.2	1	RES1	0.000	
19	 C13	14.127	154.715	45.353	C.2	1	RES1	0.000	
20	 C14	17.161	152.631	45.545	C.2	1	RES1	0.000	
21	 C15	17.190	150.714	47.059	C.3	1	RES1	0.000	
22	 C16	18.548	152.589	45.334	C.2	1	RES1	0.000	
23	 C17	19.150	153.396	44.361	C.2	1	RES1	0.000	
24	 C18	20.647	153.303	44.165	C.3	1	RES1	0.000	
25	 C19	20.394	153.550	41.744	C.3	1	RES1	0.000	
26	 C52	22.504	152.828	42.670	C.3	1	RES1	0.000	
@<TRIPOS>BOND
1 2 12 ar
2 2 13 1
3 2 14 ar
4 1 3 1
5 3 4 1
6 4 7 ar
7 6 14 2
8 7 10 ar
9 8 26 1
10 10 11 1
11 11 12 ar
12 14 15 ar
13 5 16 ar
14 15 16 ar
15 5 17 ar
16 17 18 ar
17 18 19 ar
18 11 19 ar
19 15 19 ar
20 9 20 1
21 10 20 ar
22 20 22 ar
23 9 21 1
24 22 23 ar
25 4 23 ar
26 23 24 1
27 8 24 1
28 8 25 1
@<TRIPOS>SUBSTRUCTURE
1	RES1	1	GROUP	1 ****	RES
