# created with PyMOL 2.5.2
@<TRIPOS>MOLECULE
BRD7_6V1E_TargetProtein
26 28 1                 
SMALL
USER_CHARGES
@<TRIPOS>ATOM
1	  C1	23.826	49.443	19.089	C.3	1	RES1	0.000	
2	  N1	27.124	43.897	17.944	N.2	1	RES1	0.000	
3	  O1	24.605	49.649	20.263	O.3	1	RES1	0.000	
4	  C2	25.712	48.849	20.479	C.2	1	RES1	0.000	
5	  N2	31.167	46.084	16.360	N.2	1	RES1	0.000	
6	  O2	28.489	42.921	16.305	O.2	1	RES1	0.000	
7	  C3	26.157	47.824	19.587	C.2	1	RES1	0.000	
8	  N3	25.090	49.605	23.729	N.3	1	RES1	0.000	
9	  O3	28.255	48.532	23.155	O.3	1	RES1	0.000	
10	  C4	27.257	47.043	19.883	C.2	1	RES1	0.000	
11	  C5	27.668	46.043	18.889	C.2	1	RES1	0.000	
12	  C6	26.876	44.958	18.786	C.2	1	RES1	0.000	
13	  C7	26.173	42.777	17.938	C.3	1	RES1	0.000	
14	  C8	28.224	43.821	17.082	C.2	1	RES1	0.000	
15	  C9	29.156	44.999	17.165	C.2	1	RES1	0.000	
16	 C10	30.278	45.049	16.377	C.2	1	RES1	0.000	
17	 C11	30.908	47.095	17.242	C.2	1	RES1	0.000	
18	 C12	29.791	47.149	18.049	C.2	1	RES1	0.000	
19	 C13	28.882	46.054	18.045	C.2	1	RES1	0.000	
20	 C14	27.974	47.259	21.046	C.2	1	RES1	0.000	
21	 C15	27.572	48.257	21.951	C.2	1	RES1	0.000	
22	 C16	29.288	47.649	23.508	C.3	1	RES1	0.000	
23	 C17	26.429	49.057	21.679	C.2	1	RES1	0.000	
24	 C18	25.983	50.136	22.667	C.3	1	RES1	0.000	
25	 C19	25.047	50.550	24.843	C.3	1	RES1	0.000	
26	 C54	23.710	49.377	23.214	C.3	1	RES1	0.000	
@<TRIPOS>BOND
1 2 12 ar
2 2 13 1
3 2 14 ar
4 1 3 1
5 3 4 1
6 4 7 ar
7 6 14 2
8 7 10 ar
9 8 26 1
10 10 11 1
11 11 12 ar
12 14 15 ar
13 5 16 ar
14 15 16 ar
15 5 17 ar
16 17 18 ar
17 18 19 ar
18 11 19 ar
19 15 19 ar
20 10 20 ar
21 20 21 ar
22 9 21 1
23 21 23 ar
24 9 22 1
25 4 23 ar
26 23 24 1
27 8 24 1
28 8 25 1
@<TRIPOS>SUBSTRUCTURE
1	RES1	1	GROUP	1 ****	RES
