# created with PyMOL 2.5.2
@<TRIPOS>MOLECULE
BRD7_5MQ1_TargetProtein
26 28 1                 
SMALL
USER_CHARGES
@<TRIPOS>ATOM
1	  C1	18.322	156.182	42.091	C.3	1	RES1	0.000	
2	  N1	12.904	152.299	44.888	N.2	1	RES1	0.000	
3	  O1	19.103	155.180	42.796	O.3	1	RES1	0.000	
4	  C2	18.412	154.364	43.698	C.2	1	RES1	0.000	
5	  N2	12.630	156.999	46.042	N.2	1	RES1	0.000	
6	  O2	10.861	153.330	45.344	O.2	1	RES1	0.000	
7	  C3	17.047	154.368	43.872	C.2	1	RES1	0.000	
8	  N3	21.177	152.959	42.909	N.3	1	RES1	0.000	
9	  O3	16.500	151.740	46.405	O.3	1	RES1	0.000	
10	  C4	16.419	153.489	44.788	C.2	1	RES1	0.000	
11	  C5	14.942	153.563	44.950	C.2	1	RES1	0.000	
12	  C6	14.277	152.417	44.767	C.2	1	RES1	0.000	
13	  C7	12.313	151.001	44.640	C.3	1	RES1	0.000	
14	  C8	12.074	153.388	45.214	C.2	1	RES1	0.000	
15	  C9	12.781	154.679	45.469	C.2	1	RES1	0.000	
16	 C10	12.054	155.811	45.801	C.2	1	RES1	0.000	
17	 C11	13.982	157.082	45.891	C.2	1	RES1	0.000	
18	 C12	14.769	155.994	45.572	C.2	1	RES1	0.000	
19	 C13	14.180	154.744	45.330	C.2	1	RES1	0.000	
20	 C14	17.204	152.588	45.520	C.2	1	RES1	0.000	
21	 C15	17.255	150.616	46.927	C.3	1	RES1	0.000	
22	 C16	18.590	152.583	45.317	C.2	1	RES1	0.000	
23	 C17	19.228	153.458	44.444	C.2	1	RES1	0.000	
24	 C18	20.732	153.380	44.261	C.3	1	RES1	0.000	
25	 C19	20.837	153.959	41.931	C.3	1	RES1	0.000	
26	 C54	20.592	151.663	42.549	C.3	1	RES1	0.000	
@<TRIPOS>BOND
1 2 12 ar
2 2 13 1
3 2 14 ar
4 1 3 1
5 3 4 1
6 4 7 ar
7 6 14 2
8 7 10 ar
9 8 26 1
10 10 11 1
11 11 12 ar
12 14 15 ar
13 5 16 ar
14 15 16 ar
15 5 17 ar
16 17 18 ar
17 18 19 ar
18 11 19 ar
19 15 19 ar
20 9 20 1
21 10 20 ar
22 20 22 ar
23 9 21 1
24 22 23 ar
25 4 23 ar
26 23 24 1
27 8 24 1
28 8 25 1
@<TRIPOS>SUBSTRUCTURE
1	RES1	1	GROUP	1 ****	RES
