# created with PyMOL 2.5.2
@<TRIPOS>MOLECULE
ER_1GWQ_TargetProtein
17 19 1                 
SMALL
USER_CHARGES
@<TRIPOS>ATOM
1	  S2	4.718	6.789	29.585	S.2	1	RES1	0.000	
2	 O10	10.264	8.300	33.180	O.3	1	RES1	0.000	
3	 O11	1.402	4.042	26.696	O.3	1	RES1	0.000	
4	 C42	6.154	4.669	29.465	C.2	1	RES1	0.000	
5	 C43	6.194	5.931	29.982	C.2	1	RES1	0.000	
6	 C44	7.242	6.599	30.814	C.2	1	RES1	0.000	
7	 C45	8.577	6.130	30.789	C.2	1	RES1	0.000	
8	 C46	9.556	6.690	31.564	C.2	1	RES1	0.000	
9	 C47	9.252	7.744	32.418	C.2	1	RES1	0.000	
10	 C48	7.939	8.247	32.476	C.2	1	RES1	0.000	
11	 C49	6.945	7.678	31.677	C.2	1	RES1	0.000	
12	 C50	4.120	5.434	28.701	C.2	1	RES1	0.000	
13	 C51	2.890	5.363	28.027	C.2	1	RES1	0.000	
14	 C52	2.548	4.173	27.381	C.2	1	RES1	0.000	
15	 C53	3.434	3.085	27.367	C.2	1	RES1	0.000	
16	 C54	4.639	3.189	28.048	C.2	1	RES1	0.000	
17	 C55	5.008	4.360	28.736	C.2	1	RES1	0.000	
@<TRIPOS>BOND
1 1 5 ar
2 1 12 ar
3 2 9 1
4 3 14 1
5 4 5 ar
6 4 17 ar
7 5 6 1
8 6 7 ar
9 6 11 ar
10 7 8 ar
11 8 9 ar
12 9 10 ar
13 10 11 ar
14 12 13 ar
15 12 17 ar
16 13 14 ar
17 14 15 ar
18 15 16 ar
19 16 17 ar
@<TRIPOS>SUBSTRUCTURE
1	RES1	1	GROUP	1 ****	RES
