# created with PyMOL 2.5.2
@<TRIPOS>MOLECULE
ER_1GWQ_TargetProtein
17 19 1                 
SMALL
USER_CHARGES
@<TRIPOS>ATOM
1	  S2	4.741	6.759	29.613	S.2	1	RES1	0.000	
2	  O7	10.277	8.364	33.100	O.3	1	RES1	0.000	
3	  O8	1.393	4.090	26.658	O.3	1	RES1	0.000	
4	 C41	6.168	4.639	29.468	C.2	1	RES1	0.000	
5	 C42	6.164	5.915	30.052	C.2	1	RES1	0.000	
6	 C43	7.204	6.562	30.873	C.2	1	RES1	0.000	
7	 C44	6.969	7.674	31.717	C.2	1	RES1	0.000	
8	 C45	7.944	8.249	32.459	C.2	1	RES1	0.000	
9	 C46	9.254	7.753	32.379	C.2	1	RES1	0.000	
10	 C47	9.549	6.708	31.557	C.2	1	RES1	0.000	
11	 C48	8.530	6.093	30.807	C.2	1	RES1	0.000	
12	 C49	4.120	5.420	28.718	C.2	1	RES1	0.000	
13	 C50	2.901	5.368	28.004	C.2	1	RES1	0.000	
14	 C51	2.572	4.189	27.350	C.2	1	RES1	0.000	
15	 C52	3.442	3.111	27.377	C.2	1	RES1	0.000	
16	 C53	4.645	3.171	28.031	C.2	1	RES1	0.000	
17	 C54	5.012	4.352	28.740	C.2	1	RES1	0.000	
@<TRIPOS>BOND
1 1 5 ar
2 1 12 ar
3 4 5 ar
4 4 17 ar
5 5 6 1
6 6 7 ar
7 6 11 ar
8 7 8 ar
9 8 9 ar
10 2 9 1
11 9 10 ar
12 10 11 ar
13 12 13 ar
14 12 17 ar
15 13 14 ar
16 3 14 1
17 14 15 ar
18 15 16 ar
19 16 17 ar
@<TRIPOS>SUBSTRUCTURE
1	RES1	1	GROUP	1 ****	RES
