# created with PyMOL 2.5.2
@<TRIPOS>MOLECULE
ER_1GWQ_TargetProtein
17 19 1                 
SMALL
USER_CHARGES
@<TRIPOS>ATOM
1	  S2	4.745	6.747	29.640	S.2	1	RES1	0.000	
2	  O7	10.274	8.345	33.095	O.3	1	RES1	0.000	
3	  O8	1.395	4.078	26.658	O.3	1	RES1	0.000	
4	 C37	6.172	4.645	29.477	C.2	1	RES1	0.000	
5	 C38	6.186	5.908	30.046	C.2	1	RES1	0.000	
6	 C39	7.201	6.538	30.884	C.2	1	RES1	0.000	
7	 C40	8.531	6.091	30.832	C.2	1	RES1	0.000	
8	 C41	9.547	6.714	31.594	C.2	1	RES1	0.000	
9	 C42	9.259	7.770	32.377	C.2	1	RES1	0.000	
10	 C43	7.953	8.276	32.429	C.2	1	RES1	0.000	
11	 C44	6.945	7.662	31.656	C.2	1	RES1	0.000	
12	 C45	4.104	5.417	28.708	C.2	1	RES1	0.000	
13	 C46	2.907	5.372	28.060	C.2	1	RES1	0.000	
14	 C47	2.595	4.207	27.360	C.2	1	RES1	0.000	
15	 C48	3.431	3.113	27.333	C.2	1	RES1	0.000	
16	 C49	4.649	3.181	28.023	C.2	1	RES1	0.000	
17	 C50	4.992	4.357	28.731	C.2	1	RES1	0.000	
@<TRIPOS>BOND
1 1 5 ar
2 1 12 ar
3 4 5 ar
4 4 17 ar
5 5 6 1
6 6 7 ar
7 6 11 ar
8 7 8 ar
9 8 9 ar
10 2 9 1
11 9 10 ar
12 10 11 ar
13 12 13 ar
14 12 17 ar
15 13 14 ar
16 3 14 1
17 14 15 ar
18 15 16 ar
19 16 17 ar
@<TRIPOS>SUBSTRUCTURE
1	RES1	1	GROUP	1 ****	RES
