# created with PyMOL 2.5.2
@<TRIPOS>MOLECULE
ER_1GWQ_TargetProtein
17 19 1                 
SMALL
USER_CHARGES
@<TRIPOS>ATOM
1	  S2	4.720	6.736	29.601	S.2	1	RES1	0.000	
2	  O7	10.242	8.403	33.118	O.3	1	RES1	0.000	
3	  O8	1.392	4.073	26.652	O.3	1	RES1	0.000	
4	 C38	6.163	4.648	29.484	C.2	1	RES1	0.000	
5	 C39	6.183	5.910	30.048	C.2	1	RES1	0.000	
6	 C40	7.212	6.553	30.884	C.2	1	RES1	0.000	
7	 C41	6.965	7.675	31.702	C.2	1	RES1	0.000	
8	 C42	7.973	8.240	32.440	C.2	1	RES1	0.000	
9	 C43	9.269	7.771	32.375	C.2	1	RES1	0.000	
10	 C44	9.553	6.685	31.565	C.2	1	RES1	0.000	
11	 C45	8.564	6.078	30.825	C.2	1	RES1	0.000	
12	 C46	4.128	5.434	28.718	C.2	1	RES1	0.000	
13	 C47	2.888	5.390	28.046	C.2	1	RES1	0.000	
14	 C48	2.574	4.189	27.349	C.2	1	RES1	0.000	
15	 C49	3.419	3.109	27.336	C.2	1	RES1	0.000	
16	 C50	4.650	3.180	28.026	C.2	1	RES1	0.000	
17	 C51	4.992	4.347	28.734	C.2	1	RES1	0.000	
@<TRIPOS>BOND
1 1 5 ar
2 1 12 ar
3 4 5 ar
4 4 17 ar
5 5 6 1
6 6 7 ar
7 6 11 ar
8 7 8 ar
9 8 9 ar
10 2 9 1
11 9 10 ar
12 10 11 ar
13 12 13 ar
14 12 17 ar
15 13 14 ar
16 3 14 1
17 14 15 ar
18 15 16 ar
19 16 17 ar
@<TRIPOS>SUBSTRUCTURE
1	RES1	1	GROUP	1 ****	RES
