# created with PyMOL 2.5.2
@<TRIPOS>MOLECULE
ER_1GWQ_TargetProtein
17 19 1                 
SMALL
USER_CHARGES
@<TRIPOS>ATOM
1	  S2	4.734	6.781	29.577	S.2	1	RES1	0.000	
2	  O7	10.272	8.297	33.176	O.3	1	RES1	0.000	
3	  O8	1.370	4.030	26.678	O.3	1	RES1	0.000	
4	 C39	6.183	4.686	29.474	C.2	1	RES1	0.000	
5	 C40	6.195	5.976	30.003	C.2	1	RES1	0.000	
6	 C41	7.231	6.582	30.802	C.2	1	RES1	0.000	
7	 C42	8.558	6.118	30.787	C.2	1	RES1	0.000	
8	 C43	9.547	6.679	31.553	C.2	1	RES1	0.000	
9	 C44	9.253	7.761	32.415	C.2	1	RES1	0.000	
10	 C45	7.940	8.248	32.480	C.2	1	RES1	0.000	
11	 C46	6.951	7.675	31.700	C.2	1	RES1	0.000	
12	 C47	4.112	5.411	28.704	C.2	1	RES1	0.000	
13	 C48	2.903	5.371	28.032	C.2	1	RES1	0.000	
14	 C49	2.557	4.181	27.374	C.2	1	RES1	0.000	
15	 C50	3.430	3.094	27.367	C.2	1	RES1	0.000	
16	 C51	4.655	3.170	28.064	C.2	1	RES1	0.000	
17	 C52	4.996	4.358	28.720	C.2	1	RES1	0.000	
@<TRIPOS>BOND
1 1 5 ar
2 1 12 ar
3 4 5 ar
4 4 17 ar
5 5 6 1
6 6 7 ar
7 6 11 ar
8 7 8 ar
9 8 9 ar
10 2 9 1
11 9 10 ar
12 10 11 ar
13 12 13 ar
14 12 17 ar
15 13 14 ar
16 3 14 1
17 14 15 ar
18 15 16 ar
19 16 17 ar
@<TRIPOS>SUBSTRUCTURE
1	RES1	1	GROUP	1 ****	RES
