# created with PyMOL 2.5.2
@<TRIPOS>MOLECULE
BTK_5P9L_TargetProtein
31 33 1                 
SMALL
USER_CHARGES
@<TRIPOS>ATOM
1	  C1	-26.457	7.298	5.822	C.3	1	RES1	0.000	
2	  N1	-19.316	4.977	1.519	N.pl3	1	RES1	0.000	
3	  O1	-26.715	7.626	4.450	O.3	1	RES1	0.000	
4	  C2	-25.767	7.017	3.567	C.3	1	RES1	0.000	
5	  N2	-17.916	4.631	-0.407	N.2	1	RES1	0.000	
6	  O2	-23.797	6.249	4.714	O.3	1	RES1	0.000	
7	  C3	-25.086	5.849	4.262	C.3	1	RES1	0.000	
8	  N3	-20.795	6.644	-2.664	N.pl3	1	RES1	0.000	
9	  O3	-25.069	11.254	-0.673	O.2	1	RES1	0.000	
10	  C4	-22.723	5.981	3.854	C.2	1	RES1	0.000	
11	  N4	-23.454	10.745	-2.261	N.pl3	1	RES1	0.000	
12	  C5	-21.663	5.303	4.450	C.2	1	RES1	0.000	
13	  C6	-20.531	4.952	3.703	C.2	1	RES1	0.000	
14	  C7	-20.424	5.273	2.345	C.2	1	RES1	0.000	
15	  C8	-19.064	5.121	0.145	C.2	1	RES1	0.000	
16	  C9	-17.725	4.834	-1.720	C.2	1	RES1	0.000	
17	 C10	-18.671	5.502	-2.500	C.2	1	RES1	0.000	
18	 C11	-19.807	5.983	-1.865	C.2	1	RES1	0.000	
19	 N11	-20.003	5.777	-0.557	N.2	1	RES1	0.000	
20	 C12	-22.015	7.250	-2.299	C.2	1	RES1	0.000	
21	 C13	-23.137	6.581	-1.797	C.2	1	RES1	0.000	
22	 C14	-24.286	7.242	-1.448	C.2	1	RES1	0.000	
23	 C15	-24.362	8.622	-1.583	C.2	1	RES1	0.000	
24	 C16	-23.300	9.344	-2.117	C.2	1	RES1	0.000	
25	 C17	-24.313	11.571	-1.562	C.2	1	RES1	0.000	
26	 C18	-24.197	13.014	-2.032	C.3	1	RES1	0.000	
27	 C19	-24.329	14.026	-0.878	C.3	1	RES1	0.000	
28	 C42	-22.126	8.654	-2.445	C.2	1	RES1	0.000	
29	 C43	-21.527	5.955	1.755	C.2	1	RES1	0.000	
30	 C44	-22.660	6.313	2.499	C.2	1	RES1	0.000	
31	  F1	-18.472	5.695	-3.817	 F	1	RES1	0.000	
@<TRIPOS>BOND
1 2 14 1
2 2 15 1
3 1 3 1
4 3 4 1
5 4 7 1
6 5 15 ar
7 5 16 ar
8 6 7 1
9 6 10 1
10 10 12 ar
11 10 30 ar
12 12 13 ar
13 13 14 ar
14 16 17 ar
15 17 18 ar
16 8 18 1
17 18 19 ar
18 15 19 ar
19 8 20 1
20 20 21 ar
21 20 28 ar
22 21 22 ar
23 22 23 ar
24 23 24 ar
25 11 24 1
26 24 28 ar
27 9 25 2
28 11 25 1
29 25 26 1
30 26 27 1
31 14 29 ar
32 29 30 ar
33 17 31 1
@<TRIPOS>SUBSTRUCTURE
1	RES1	1	GROUP	1 ****	RES
