# created with PyMOL 2.5.2
@<TRIPOS>MOLECULE
ER_1GWQ_TargetProtein
17 19 1                 
SMALL
USER_CHARGES
@<TRIPOS>ATOM
1	  S2	4.734	6.754	29.605	S.2	1	RES1	0.000	
2	  O7	10.228	8.382	33.140	O.3	1	RES1	0.000	
3	  O8	1.379	4.082	26.664	O.3	1	RES1	0.000	
4	 C40	6.169	4.633	29.475	C.2	1	RES1	0.000	
5	 C41	6.185	5.913	30.029	C.2	1	RES1	0.000	
6	 C42	7.229	6.547	30.865	C.2	1	RES1	0.000	
7	 C43	8.537	6.080	30.802	C.2	1	RES1	0.000	
8	 C44	9.570	6.693	31.582	C.2	1	RES1	0.000	
9	 C45	9.242	7.776	32.375	C.2	1	RES1	0.000	
10	 C46	7.967	8.259	32.432	C.2	1	RES1	0.000	
11	 C47	6.972	7.656	31.691	C.2	1	RES1	0.000	
12	 C48	4.098	5.435	28.718	C.2	1	RES1	0.000	
13	 C49	2.894	5.395	28.043	C.2	1	RES1	0.000	
14	 C50	2.593	4.196	27.375	C.2	1	RES1	0.000	
15	 C51	3.429	3.111	27.350	C.2	1	RES1	0.000	
16	 C52	4.652	3.177	28.025	C.2	1	RES1	0.000	
17	 C53	5.008	4.333	28.732	C.2	1	RES1	0.000	
@<TRIPOS>BOND
1 1 5 ar
2 1 12 ar
3 4 5 ar
4 4 17 ar
5 5 6 1
6 6 7 ar
7 6 11 ar
8 7 8 ar
9 8 9 ar
10 2 9 1
11 9 10 ar
12 10 11 ar
13 12 13 ar
14 12 17 ar
15 13 14 ar
16 3 14 1
17 14 15 ar
18 15 16 ar
19 16 17 ar
@<TRIPOS>SUBSTRUCTURE
1	RES1	1	GROUP	1 ****	RES
