# created with PyMOL 2.5.2
@<TRIPOS>MOLECULE
ER_1GWQ_TargetProtein
17 19 1                 
SMALL
USER_CHARGES
@<TRIPOS>ATOM
1	  S2	4.740	6.746	29.627	S.2	1	RES1	0.000	
2	  O7	10.220	8.385	33.118	O.3	1	RES1	0.000	
3	  O8	1.381	4.086	26.673	O.3	1	RES1	0.000	
4	 C42	6.174	4.642	29.475	C.2	1	RES1	0.000	
5	 C43	6.179	5.914	30.038	C.2	1	RES1	0.000	
6	 C44	7.221	6.549	30.864	C.2	1	RES1	0.000	
7	 C45	6.954	7.671	31.684	C.2	1	RES1	0.000	
8	 C46	7.958	8.254	32.450	C.2	1	RES1	0.000	
9	 C47	9.275	7.769	32.377	C.2	1	RES1	0.000	
10	 C48	9.550	6.676	31.564	C.2	1	RES1	0.000	
11	 C49	8.553	6.086	30.815	C.2	1	RES1	0.000	
12	 C50	4.117	5.434	28.715	C.2	1	RES1	0.000	
13	 C51	2.900	5.371	28.035	C.2	1	RES1	0.000	
14	 C52	2.591	4.200	27.346	C.2	1	RES1	0.000	
15	 C53	3.436	3.109	27.348	C.2	1	RES1	0.000	
16	 C54	4.636	3.182	28.038	C.2	1	RES1	0.000	
17	 C55	5.002	4.347	28.736	C.2	1	RES1	0.000	
@<TRIPOS>BOND
1 1 5 ar
2 1 12 ar
3 4 5 ar
4 4 17 ar
5 5 6 1
6 6 7 ar
7 6 11 ar
8 7 8 ar
9 8 9 ar
10 2 9 1
11 9 10 ar
12 10 11 ar
13 12 13 ar
14 12 17 ar
15 13 14 ar
16 3 14 1
17 14 15 ar
18 15 16 ar
19 16 17 ar
@<TRIPOS>SUBSTRUCTURE
1	RES1	1	GROUP	1 ****	RES
