# created with PyMOL 2.5.2
@<TRIPOS>MOLECULE
ER_1GWQ_TargetProtein
17 19 1                 
SMALL
USER_CHARGES
@<TRIPOS>ATOM
1	  S2	4.713	6.758	29.592	S.2	1	RES1	0.000	
2	  O7	10.265	8.350	33.102	O.3	1	RES1	0.000	
3	  O8	1.388	4.076	26.666	O.3	1	RES1	0.000	
4	 C43	6.159	4.659	29.489	C.2	1	RES1	0.000	
5	 C44	6.173	5.913	30.026	C.2	1	RES1	0.000	
6	 C45	7.225	6.556	30.866	C.2	1	RES1	0.000	
7	 C46	8.564	6.089	30.817	C.2	1	RES1	0.000	
8	 C47	9.545	6.698	31.570	C.2	1	RES1	0.000	
9	 C48	9.244	7.757	32.381	C.2	1	RES1	0.000	
10	 C49	7.960	8.253	32.469	C.2	1	RES1	0.000	
11	 C50	6.957	7.684	31.698	C.2	1	RES1	0.000	
12	 C51	4.107	5.443	28.726	C.2	1	RES1	0.000	
13	 C52	2.897	5.365	28.031	C.2	1	RES1	0.000	
14	 C53	2.586	4.183	27.354	C.2	1	RES1	0.000	
15	 C54	3.433	3.112	27.354	C.2	1	RES1	0.000	
16	 C55	4.655	3.177	28.038	C.2	1	RES1	0.000	
17	 C56	5.014	4.347	28.726	C.2	1	RES1	0.000	
@<TRIPOS>BOND
1 1 5 ar
2 1 12 ar
3 4 5 ar
4 4 17 ar
5 5 6 1
6 6 7 ar
7 6 11 ar
8 7 8 ar
9 8 9 ar
10 2 9 1
11 9 10 ar
12 10 11 ar
13 12 13 ar
14 12 17 ar
15 13 14 ar
16 3 14 1
17 14 15 ar
18 15 16 ar
19 16 17 ar
@<TRIPOS>SUBSTRUCTURE
1	RES1	1	GROUP	1 ****	RES
