# created with PyMOL 2.5.2
@<TRIPOS>MOLECULE
ER_1GWQ_TargetProtein
17 19 1                 
SMALL
USER_CHARGES
@<TRIPOS>ATOM
1	  S1	4.725	6.744	29.618	S.2	1	RES1	0.000	
2	  O7	10.272	8.349	33.097	O.3	1	RES1	0.000	
3	  O8	1.391	4.098	26.653	O.3	1	RES1	0.000	
4	 C33	6.170	4.630	29.483	C.2	1	RES1	0.000	
5	 C34	6.190	5.924	30.062	C.2	1	RES1	0.000	
6	 C35	7.203	6.562	30.877	C.2	1	RES1	0.000	
7	 C36	6.946	7.670	31.684	C.2	1	RES1	0.000	
8	 C37	7.944	8.277	32.450	C.2	1	RES1	0.000	
9	 C38	9.263	7.763	32.382	C.2	1	RES1	0.000	
10	 C39	9.549	6.699	31.556	C.2	1	RES1	0.000	
11	 C40	8.532	6.083	30.814	C.2	1	RES1	0.000	
12	 C41	4.113	5.422	28.711	C.2	1	RES1	0.000	
13	 C42	2.891	5.361	28.037	C.2	1	RES1	0.000	
14	 C43	2.591	4.202	27.353	C.2	1	RES1	0.000	
15	 C44	3.446	3.119	27.356	C.2	1	RES1	0.000	
16	 C45	4.653	3.170	28.037	C.2	1	RES1	0.000	
17	 C46	5.003	4.345	28.723	C.2	1	RES1	0.000	
@<TRIPOS>BOND
1 1 5 ar
2 1 12 ar
3 4 5 ar
4 4 17 ar
5 5 6 1
6 6 7 ar
7 6 11 ar
8 7 8 ar
9 8 9 ar
10 2 9 1
11 9 10 ar
12 10 11 ar
13 12 13 ar
14 12 17 ar
15 13 14 ar
16 3 14 1
17 14 15 ar
18 15 16 ar
19 16 17 ar
@<TRIPOS>SUBSTRUCTURE
1	RES1	1	GROUP	1 ****	RES
