# created with PyMOL 2.5.2
@<TRIPOS>MOLECULE
ER_1GWQ_TargetProtein
17 19 1                 
SMALL
USER_CHARGES
@<TRIPOS>ATOM
1	  S1	4.719	6.764	29.598	S.2	1	RES1	0.000	
2	  O7	10.204	8.340	33.195	O.3	1	RES1	0.000	
3	  O8	1.371	4.057	26.698	O.3	1	RES1	0.000	
4	 C32	6.190	4.686	29.449	C.2	1	RES1	0.000	
5	 C33	6.186	5.941	30.009	C.2	1	RES1	0.000	
6	 C34	7.243	6.598	30.810	C.2	1	RES1	0.000	
7	 C35	6.977	7.695	31.641	C.2	1	RES1	0.000	
8	 C36	7.954	8.253	32.417	C.2	1	RES1	0.000	
9	 C37	9.244	7.743	32.389	C.2	1	RES1	0.000	
10	 C38	9.568	6.643	31.592	C.2	1	RES1	0.000	
11	 C39	8.554	6.077	30.836	C.2	1	RES1	0.000	
12	 C40	4.105	5.427	28.718	C.2	1	RES1	0.000	
13	 C41	2.865	5.364	28.074	C.2	1	RES1	0.000	
14	 C42	2.571	4.179	27.397	C.2	1	RES1	0.000	
15	 C43	3.439	3.093	27.356	C.2	1	RES1	0.000	
16	 C44	4.673	3.209	28.011	C.2	1	RES1	0.000	
17	 C45	5.023	4.354	28.714	C.2	1	RES1	0.000	
@<TRIPOS>BOND
1 1 5 ar
2 1 12 ar
3 4 5 ar
4 4 17 ar
5 5 6 1
6 6 7 ar
7 6 11 ar
8 7 8 ar
9 8 9 ar
10 2 9 1
11 9 10 ar
12 10 11 ar
13 12 13 ar
14 12 17 ar
15 13 14 ar
16 3 14 1
17 14 15 ar
18 15 16 ar
19 16 17 ar
@<TRIPOS>SUBSTRUCTURE
1	RES1	1	GROUP	1 ****	RES
