# created with PyMOL 2.5.2
@<TRIPOS>MOLECULE
ER_1GWQ_TargetProtein
17 19 1                 
SMALL
USER_CHARGES
@<TRIPOS>ATOM
1	  S1	4.733	6.775	29.598	S.2	1	RES1	0.000	
2	  O7	10.297	8.350	33.111	O.3	1	RES1	0.000	
3	  O8	1.395	4.078	26.661	O.3	1	RES1	0.000	
4	 C32	6.161	4.655	29.495	C.2	1	RES1	0.000	
5	 C33	6.166	5.925	30.044	C.2	1	RES1	0.000	
6	 C34	7.220	6.561	30.867	C.2	1	RES1	0.000	
7	 C35	8.534	6.103	30.812	C.2	1	RES1	0.000	
8	 C36	9.554	6.699	31.534	C.2	1	RES1	0.000	
9	 C37	9.253	7.770	32.385	C.2	1	RES1	0.000	
10	 C38	7.942	8.251	32.485	C.2	1	RES1	0.000	
11	 C39	6.945	7.647	31.699	C.2	1	RES1	0.000	
12	 C40	4.104	5.417	28.697	C.2	1	RES1	0.000	
13	 C41	2.916	5.374	28.025	C.2	1	RES1	0.000	
14	 C42	2.594	4.191	27.355	C.2	1	RES1	0.000	
15	 C43	3.431	3.093	27.370	C.2	1	RES1	0.000	
16	 C44	4.652	3.176	28.049	C.2	1	RES1	0.000	
17	 C45	4.990	4.356	28.717	C.2	1	RES1	0.000	
@<TRIPOS>BOND
1 1 5 ar
2 1 12 ar
3 4 5 ar
4 4 17 ar
5 5 6 1
6 6 7 ar
7 6 11 ar
8 7 8 ar
9 8 9 ar
10 2 9 1
11 9 10 ar
12 10 11 ar
13 12 13 ar
14 12 17 ar
15 13 14 ar
16 3 14 1
17 14 15 ar
18 15 16 ar
19 16 17 ar
@<TRIPOS>SUBSTRUCTURE
1	RES1	1	GROUP	1 ****	RES
