# created with PyMOL 2.5.2
@<TRIPOS>MOLECULE
ER_1GWQ_TargetProtein
17 19 1                 
SMALL
USER_CHARGES
@<TRIPOS>ATOM
1	  S1	4.755	6.772	29.580	S.2	1	RES1	0.000	
2	  O7	10.227	8.352	33.200	O.3	1	RES1	0.000	
3	  O8	1.343	4.060	26.676	O.3	1	RES1	0.000	
4	 C32	6.188	4.683	29.465	C.2	1	RES1	0.000	
5	 C33	6.194	5.945	30.009	C.2	1	RES1	0.000	
6	 C34	7.244	6.599	30.815	C.2	1	RES1	0.000	
7	 C35	8.561	6.133	30.748	C.2	1	RES1	0.000	
8	 C36	9.552	6.680	31.549	C.2	1	RES1	0.000	
9	 C37	9.244	7.735	32.407	C.2	1	RES1	0.000	
10	 C38	7.946	8.219	32.488	C.2	1	RES1	0.000	
11	 C39	6.976	7.654	31.695	C.2	1	RES1	0.000	
12	 C40	4.109	5.441	28.674	C.2	1	RES1	0.000	
13	 C41	2.903	5.364	28.026	C.2	1	RES1	0.000	
14	 C42	2.577	4.175	27.364	C.2	1	RES1	0.000	
15	 C43	3.430	3.093	27.404	C.2	1	RES1	0.000	
16	 C44	4.648	3.162	28.078	C.2	1	RES1	0.000	
17	 C45	4.988	4.353	28.730	C.2	1	RES1	0.000	
@<TRIPOS>BOND
1 1 5 ar
2 1 12 ar
3 4 5 ar
4 4 17 ar
5 5 6 1
6 6 7 ar
7 6 11 ar
8 7 8 ar
9 8 9 ar
10 2 9 1
11 9 10 ar
12 10 11 ar
13 12 13 ar
14 12 17 ar
15 13 14 ar
16 3 14 1
17 14 15 ar
18 15 16 ar
19 16 17 ar
@<TRIPOS>SUBSTRUCTURE
1	RES1	1	GROUP	1 ****	RES
