# created with PyMOL 2.5.2
@<TRIPOS>MOLECULE
ER_1GWQ_TargetProtein
17 19 1                 
SMALL
USER_CHARGES
@<TRIPOS>ATOM
1	  S1	4.725	6.751	29.637	S.2	1	RES1	0.000	
2	  O7	10.269	8.347	33.109	O.3	1	RES1	0.000	
3	  O8	1.384	4.077	26.662	O.3	1	RES1	0.000	
4	 C32	6.169	4.643	29.477	C.2	1	RES1	0.000	
5	 C33	6.200	5.898	30.038	C.2	1	RES1	0.000	
6	 C34	7.221	6.546	30.893	C.2	1	RES1	0.000	
7	 C35	8.538	6.065	30.829	C.2	1	RES1	0.000	
8	 C36	9.534	6.679	31.577	C.2	1	RES1	0.000	
9	 C37	9.239	7.796	32.373	C.2	1	RES1	0.000	
10	 C38	7.969	8.308	32.422	C.2	1	RES1	0.000	
11	 C39	6.948	7.671	31.688	C.2	1	RES1	0.000	
12	 C40	4.099	5.418	28.723	C.2	1	RES1	0.000	
13	 C41	2.900	5.391	28.045	C.2	1	RES1	0.000	
14	 C42	2.592	4.198	27.362	C.2	1	RES1	0.000	
15	 C43	3.435	3.109	27.329	C.2	1	RES1	0.000	
16	 C44	4.647	3.174	28.003	C.2	1	RES1	0.000	
17	 C45	5.017	4.351	28.731	C.2	1	RES1	0.000	
@<TRIPOS>BOND
1 1 5 ar
2 1 12 ar
3 4 5 ar
4 4 17 ar
5 5 6 1
6 6 7 ar
7 6 11 ar
8 7 8 ar
9 8 9 ar
10 2 9 1
11 9 10 ar
12 10 11 ar
13 12 13 ar
14 12 17 ar
15 13 14 ar
16 3 14 1
17 14 15 ar
18 15 16 ar
19 16 17 ar
@<TRIPOS>SUBSTRUCTURE
1	RES1	1	GROUP	1 ****	RES
