# created with PyMOL 2.5.2
@<TRIPOS>MOLECULE
ER_1GWQ_TargetProtein
17 19 1                 
SMALL
USER_CHARGES
@<TRIPOS>ATOM
1	  S1	4.747	6.762	29.625	S.2	1	RES1	0.000	
2	  O7	10.259	8.358	33.111	O.3	1	RES1	0.000	
3	  O8	1.372	4.068	26.685	O.3	1	RES1	0.000	
4	 C32	6.178	4.639	29.473	C.2	1	RES1	0.000	
5	 C33	6.201	5.924	30.031	C.2	1	RES1	0.000	
6	 C34	7.228	6.525	30.866	C.2	1	RES1	0.000	
7	 C35	6.936	7.668	31.671	C.2	1	RES1	0.000	
8	 C36	7.964	8.279	32.451	C.2	1	RES1	0.000	
9	 C37	9.235	7.792	32.383	C.2	1	RES1	0.000	
10	 C38	9.556	6.679	31.601	C.2	1	RES1	0.000	
11	 C39	8.541	6.092	30.827	C.2	1	RES1	0.000	
12	 C40	4.126	5.433	28.707	C.2	1	RES1	0.000	
13	 C41	2.893	5.384	28.047	C.2	1	RES1	0.000	
14	 C42	2.560	4.199	27.350	C.2	1	RES1	0.000	
15	 C43	3.441	3.109	27.344	C.2	1	RES1	0.000	
16	 C44	4.643	3.174	28.016	C.2	1	RES1	0.000	
17	 C45	5.007	4.339	28.716	C.2	1	RES1	0.000	
@<TRIPOS>BOND
1 1 5 ar
2 1 12 ar
3 4 5 ar
4 4 17 ar
5 5 6 1
6 6 7 ar
7 6 11 ar
8 7 8 ar
9 8 9 ar
10 2 9 1
11 9 10 ar
12 10 11 ar
13 12 13 ar
14 12 17 ar
15 13 14 ar
16 3 14 1
17 14 15 ar
18 15 16 ar
19 16 17 ar
@<TRIPOS>SUBSTRUCTURE
1	RES1	1	GROUP	1 ****	RES
