# created with PyMOL 2.5.2
@<TRIPOS>MOLECULE
ER_1GWQ_TargetProtein
17 19 1                 
SMALL
USER_CHARGES
@<TRIPOS>ATOM
1	  S1	4.720	6.765	29.613	S.2	1	RES1	0.000	
2	  O7	10.280	8.351	33.098	O.3	1	RES1	0.000	
3	  O8	1.388	4.075	26.658	O.3	1	RES1	0.000	
4	 C32	6.175	4.668	29.495	C.2	1	RES1	0.000	
5	 C33	6.189	5.931	30.064	C.2	1	RES1	0.000	
6	 C34	7.221	6.571	30.881	C.2	1	RES1	0.000	
7	 C35	6.946	7.659	31.681	C.2	1	RES1	0.000	
8	 C36	7.954	8.285	32.451	C.2	1	RES1	0.000	
9	 C37	9.259	7.762	32.381	C.2	1	RES1	0.000	
10	 C38	9.558	6.681	31.562	C.2	1	RES1	0.000	
11	 C39	8.514	6.075	30.827	C.2	1	RES1	0.000	
12	 C40	4.128	5.424	28.715	C.2	1	RES1	0.000	
13	 C41	2.880	5.352	28.047	C.2	1	RES1	0.000	
14	 C42	2.573	4.200	27.344	C.2	1	RES1	0.000	
15	 C43	3.465	3.108	27.332	C.2	1	RES1	0.000	
16	 C44	4.635	3.178	28.022	C.2	1	RES1	0.000	
17	 C45	5.002	4.338	28.734	C.2	1	RES1	0.000	
@<TRIPOS>BOND
1 1 5 ar
2 1 12 ar
3 4 5 ar
4 4 17 ar
5 5 6 1
6 6 7 ar
7 6 11 ar
8 7 8 ar
9 8 9 ar
10 2 9 1
11 9 10 ar
12 10 11 ar
13 12 13 ar
14 12 17 ar
15 13 14 ar
16 3 14 1
17 14 15 ar
18 15 16 ar
19 16 17 ar
@<TRIPOS>SUBSTRUCTURE
1	RES1	1	GROUP	1 ****	RES
