# created with PyMOL 2.5.2
@<TRIPOS>MOLECULE
BTK_5P9J_TargetProtein
33 37 1                 
SMALL
USER_CHARGES
@<TRIPOS>ATOM
1	  C1	18.091	5.068	1.655	C.2	1	RES1	0.000	
2	  N1	17.061	4.593	2.490	N.pl3	1	RES1	0.000	
3	  O1	17.442	5.782	8.540	O.3	1	RES1	0.000	
4	  C2	18.960	5.273	-0.481	C.2	1	RES1	0.000	
5	  N2	17.962	4.840	0.353	N.2	1	RES1	0.000	
6	  O2	22.842	9.701	-1.864	O.2	1	RES1	0.000	
7	  C3	20.179	6.097	1.182	C.2	1	RES1	0.000	
8	  N3	20.082	5.870	-0.129	N.2	1	RES1	0.000	
9	  C4	19.211	5.751	2.136	C.2	1	RES1	0.000	
10	  N4	20.978	6.755	3.203	N.2	1	RES1	0.000	
11	  C5	19.779	6.197	3.373	C.2	1	RES1	0.000	
12	  N5	21.178	6.675	1.869	N.2	1	RES1	0.000	
13	  C6	19.175	6.131	4.692	C.2	1	RES1	0.000	
14	  N6	23.523	9.205	0.278	N.pl3	1	RES1	0.000	
15	  C7	18.792	4.867	5.220	C.2	1	RES1	0.000	
16	  C8	18.220	4.798	6.497	C.2	1	RES1	0.000	
17	  C9	18.006	5.958	7.234	C.2	1	RES1	0.000	
18	 C10	16.519	6.754	8.922	C.2	1	RES1	0.000	
19	 C11	15.508	7.191	8.069	C.2	1	RES1	0.000	
20	 C12	14.564	8.119	8.543	C.2	1	RES1	0.000	
21	 C13	14.652	8.597	9.866	C.2	1	RES1	0.000	
22	 C14	15.673	8.127	10.698	C.2	1	RES1	0.000	
23	 C15	16.579	7.194	10.240	C.2	1	RES1	0.000	
24	 C16	18.410	7.181	6.738	C.2	1	RES1	0.000	
25	 C17	19.000	7.266	5.460	C.2	1	RES1	0.000	
26	 C18	22.447	7.219	1.299	C.3	1	RES1	0.000	
27	 C19	23.622	7.075	2.275	C.3	1	RES1	0.000	
28	 C20	24.865	7.683	1.692	C.3	1	RES1	0.000	
29	 C21	24.679	9.111	1.202	C.3	1	RES1	0.000	
30	 C22	23.683	9.820	-0.969	C.2	1	RES1	0.000	
31	 C23	24.927	10.625	-1.200	C.3	1	RES1	0.000	
32	 C24	24.922	11.985	-0.534	C.3	1	RES1	0.000	
33	 C46	22.253	8.646	0.804	C.3	1	RES1	0.000	
@<TRIPOS>BOND
1 1 2 1
2 1 5 ar
3 1 9 ar
4 3 17 1
5 3 18 1
6 4 8 ar
7 4 5 ar
8 6 30 2
9 7 8 ar
10 7 9 ar
11 7 12 ar
12 9 11 ar
13 10 11 ar
14 10 12 ar
15 11 13 1
16 13 15 ar
17 15 16 ar
18 16 17 ar
19 18 19 ar
20 18 23 ar
21 19 20 ar
22 20 21 ar
23 21 22 ar
24 22 23 ar
25 17 24 ar
26 24 25 ar
27 13 25 ar
28 12 26 1
29 26 27 1
30 26 33 1
31 27 28 1
32 28 29 1
33 14 29 1
34 14 30 1
35 30 31 1
36 31 32 1
37 14 33 1
@<TRIPOS>SUBSTRUCTURE
1	RES1	1	GROUP	1 ****	RES
