# created with PyMOL 2.5.2
@<TRIPOS>MOLECULE
ER_1GWQ_TargetProtein
17 19 1                 
SMALL
USER_CHARGES
@<TRIPOS>ATOM
1	  S1	4.705	6.749	29.624	S.2	1	RES1	0.000	
2	  O7	10.268	8.294	33.193	O.3	1	RES1	0.000	
3	  O8	1.370	4.042	26.707	O.3	1	RES1	0.000	
4	 C32	6.195	4.679	29.430	C.2	1	RES1	0.000	
5	 C33	6.192	5.942	29.982	C.2	1	RES1	0.000	
6	 C34	7.226	6.617	30.805	C.2	1	RES1	0.000	
7	 C35	6.964	7.716	31.619	C.2	1	RES1	0.000	
8	 C36	7.965	8.298	32.419	C.2	1	RES1	0.000	
9	 C37	9.245	7.755	32.388	C.2	1	RES1	0.000	
10	 C38	9.531	6.620	31.652	C.2	1	RES1	0.000	
11	 C39	8.551	6.088	30.843	C.2	1	RES1	0.000	
12	 C40	4.093	5.415	28.733	C.2	1	RES1	0.000	
13	 C41	2.874	5.333	28.066	C.2	1	RES1	0.000	
14	 C42	2.559	4.168	27.398	C.2	1	RES1	0.000	
15	 C43	3.455	3.118	27.358	C.2	1	RES1	0.000	
16	 C44	4.674	3.221	28.005	C.2	1	RES1	0.000	
17	 C45	5.020	4.367	28.682	C.2	1	RES1	0.000	
@<TRIPOS>BOND
1 1 5 ar
2 1 12 ar
3 4 5 ar
4 4 17 ar
5 5 6 1
6 6 7 ar
7 6 11 ar
8 7 8 ar
9 8 9 ar
10 2 9 1
11 9 10 ar
12 10 11 ar
13 12 13 ar
14 12 17 ar
15 13 14 ar
16 3 14 1
17 14 15 ar
18 15 16 ar
19 16 17 ar
@<TRIPOS>SUBSTRUCTURE
1	RES1	1	GROUP	1 ****	RES
