# created with PyMOL 2.5.2
@<TRIPOS>MOLECULE
ER_1GWQ_TargetProtein
17 19 1                 
SMALL
USER_CHARGES
@<TRIPOS>ATOM
1	  S2	4.726	6.765	29.591	S.2	1	RES1	0.000	
2	  O9	10.232	8.330	33.134	O.3	1	RES1	0.000	
3	 O10	1.381	4.064	26.703	O.3	1	RES1	0.000	
4	 C40	6.184	4.675	29.462	C.2	1	RES1	0.000	
5	 C41	6.190	5.942	30.022	C.2	1	RES1	0.000	
6	 C42	7.253	6.549	30.859	C.2	1	RES1	0.000	
7	 C43	6.958	7.673	31.682	C.2	1	RES1	0.000	
8	 C44	7.948	8.277	32.439	C.2	1	RES1	0.000	
9	 C45	9.249	7.762	32.395	C.2	1	RES1	0.000	
10	 C46	9.539	6.688	31.582	C.2	1	RES1	0.000	
11	 C47	8.556	6.080	30.823	C.2	1	RES1	0.000	
12	 C48	4.114	5.434	28.716	C.2	1	RES1	0.000	
13	 C49	2.906	5.371	28.045	C.2	1	RES1	0.000	
14	 C50	2.575	4.191	27.362	C.2	1	RES1	0.000	
15	 C51	3.437	3.101	27.358	C.2	1	RES1	0.000	
16	 C52	4.649	3.179	28.016	C.2	1	RES1	0.000	
17	 C53	4.992	4.342	28.722	C.2	1	RES1	0.000	
@<TRIPOS>BOND
1 1 5 ar
2 1 12 ar
3 3 14 1
4 4 5 ar
5 4 17 ar
6 5 6 1
7 6 7 ar
8 6 11 ar
9 7 8 ar
10 8 9 ar
11 2 9 1
12 9 10 ar
13 10 11 ar
14 12 13 ar
15 12 17 ar
16 13 14 ar
17 14 15 ar
18 15 16 ar
19 16 17 ar
@<TRIPOS>SUBSTRUCTURE
1	RES1	1	GROUP	1 ****	RES
