# created with PyMOL 2.5.2
@<TRIPOS>MOLECULE
ER_1GWQ_TargetProtein
17 19 1                 
SMALL
USER_CHARGES
@<TRIPOS>ATOM
1	  S2	4.757	6.787	29.560	S.2	1	RES1	0.000	
2	  O9	10.264	8.294	33.158	O.3	1	RES1	0.000	
3	 O10	1.385	4.057	26.674	O.3	1	RES1	0.000	
4	 C39	6.184	4.660	29.473	C.2	1	RES1	0.000	
5	 C40	6.182	5.950	30.015	C.2	1	RES1	0.000	
6	 C41	7.231	6.600	30.803	C.2	1	RES1	0.000	
7	 C42	8.551	6.139	30.757	C.2	1	RES1	0.000	
8	 C43	9.561	6.729	31.539	C.2	1	RES1	0.000	
9	 C44	9.257	7.751	32.418	C.2	1	RES1	0.000	
10	 C45	7.933	8.226	32.508	C.2	1	RES1	0.000	
11	 C46	6.938	7.636	31.714	C.2	1	RES1	0.000	
12	 C47	4.116	5.442	28.677	C.2	1	RES1	0.000	
13	 C48	2.895	5.378	28.017	C.2	1	RES1	0.000	
14	 C49	2.565	4.162	27.363	C.2	1	RES1	0.000	
15	 C50	3.416	3.085	27.393	C.2	1	RES1	0.000	
16	 C51	4.635	3.172	28.078	C.2	1	RES1	0.000	
17	 C52	5.016	4.353	28.757	C.2	1	RES1	0.000	
@<TRIPOS>BOND
1 1 5 ar
2 1 12 ar
3 3 14 1
4 4 5 ar
5 4 17 ar
6 5 6 1
7 6 7 ar
8 6 11 ar
9 7 8 ar
10 8 9 ar
11 2 9 1
12 9 10 ar
13 10 11 ar
14 12 13 ar
15 12 17 ar
16 13 14 ar
17 14 15 ar
18 15 16 ar
19 16 17 ar
@<TRIPOS>SUBSTRUCTURE
1	RES1	1	GROUP	1 ****	RES
