# created with PyMOL 2.5.2
@<TRIPOS>MOLECULE
ER_1GWQ_TargetProtein
17 19 1                 
SMALL
USER_CHARGES
@<TRIPOS>ATOM
1	  S2	4.729	6.748	29.619	S.2	1	RES1	0.000	
2	  O8	10.280	8.345	33.103	O.3	1	RES1	0.000	
3	  O9	1.373	4.082	26.657	O.3	1	RES1	0.000	
4	 C40	6.167	4.659	29.495	C.2	1	RES1	0.000	
5	 C41	6.174	5.912	30.056	C.2	1	RES1	0.000	
6	 C42	7.196	6.566	30.876	C.2	1	RES1	0.000	
7	 C43	6.956	7.669	31.697	C.2	1	RES1	0.000	
8	 C44	7.960	8.285	32.440	C.2	1	RES1	0.000	
9	 C45	9.253	7.774	32.365	C.2	1	RES1	0.000	
10	 C46	9.562	6.692	31.564	C.2	1	RES1	0.000	
11	 C47	8.521	6.060	30.836	C.2	1	RES1	0.000	
12	 C48	4.105	5.402	28.708	C.2	1	RES1	0.000	
13	 C49	2.902	5.383	28.041	C.2	1	RES1	0.000	
14	 C50	2.582	4.174	27.347	C.2	1	RES1	0.000	
15	 C51	3.440	3.116	27.333	C.2	1	RES1	0.000	
16	 C52	4.670	3.192	28.024	C.2	1	RES1	0.000	
17	 C53	5.017	4.360	28.743	C.2	1	RES1	0.000	
@<TRIPOS>BOND
1 1 5 ar
2 1 12 ar
3 4 5 ar
4 4 17 ar
5 5 6 1
6 6 7 ar
7 6 11 ar
8 7 8 ar
9 8 9 ar
10 2 9 1
11 9 10 ar
12 10 11 ar
13 12 13 ar
14 12 17 ar
15 13 14 ar
16 3 14 1
17 14 15 ar
18 15 16 ar
19 16 17 ar
@<TRIPOS>SUBSTRUCTURE
1	RES1	1	GROUP	1 ****	RES
