# created with PyMOL 2.5.2
@<TRIPOS>MOLECULE
ER_1GWQ_TargetProtein
17 19 1                 
SMALL
USER_CHARGES
@<TRIPOS>ATOM
1	  S1	4.744	6.775	29.573	S.2	1	RES1	0.000	
2	  O3	10.244	8.307	33.165	O.3	1	RES1	0.000	
3	  O4	1.371	4.032	26.686	O.3	1	RES1	0.000	
4	 C10	6.163	4.676	29.476	C.2	1	RES1	0.000	
5	 C11	6.210	5.938	30.004	C.2	1	RES1	0.000	
6	 C12	7.237	6.602	30.813	C.2	1	RES1	0.000	
7	 C13	8.569	6.119	30.766	C.2	1	RES1	0.000	
8	 C14	9.551	6.690	31.560	C.2	1	RES1	0.000	
9	 C15	9.237	7.747	32.404	C.2	1	RES1	0.000	
10	 C16	7.933	8.250	32.473	C.2	1	RES1	0.000	
11	 C17	6.967	7.646	31.704	C.2	1	RES1	0.000	
12	 C18	4.113	5.453	28.722	C.2	1	RES1	0.000	
13	 C19	2.906	5.381	28.029	C.2	1	RES1	0.000	
14	 C20	2.577	4.181	27.358	C.2	1	RES1	0.000	
15	 C21	3.434	3.087	27.380	C.2	1	RES1	0.000	
16	 C22	4.642	3.171	28.051	C.2	1	RES1	0.000	
17	 C23	4.990	4.362	28.738	C.2	1	RES1	0.000	
@<TRIPOS>BOND
1 1 5 ar
2 1 12 ar
3 4 5 ar
4 4 17 ar
5 5 6 1
6 6 7 ar
7 6 11 ar
8 7 8 ar
9 8 9 ar
10 2 9 1
11 9 10 ar
12 10 11 ar
13 12 13 ar
14 12 17 ar
15 13 14 ar
16 3 14 1
17 14 15 ar
18 15 16 ar
19 16 17 ar
@<TRIPOS>SUBSTRUCTURE
1	RES1	1	GROUP	1 ****	RES
