# created with PyMOL 2.5.2
@<TRIPOS>MOLECULE
ER_1GWQ_TargetProtein
17 19 1                 
SMALL
USER_CHARGES
@<TRIPOS>ATOM
1	  S1	4.722	6.757	29.609	S.2	1	RES1	0.000	
2	  O3	10.280	8.358	33.106	O.3	1	RES1	0.000	
3	  O4	1.402	4.089	26.664	O.3	1	RES1	0.000	
4	 C10	6.175	4.647	29.489	C.2	1	RES1	0.000	
5	 C11	6.194	5.905	30.042	C.2	1	RES1	0.000	
6	 C12	7.211	6.534	30.870	C.2	1	RES1	0.000	
7	 C13	6.948	7.666	31.679	C.2	1	RES1	0.000	
8	 C14	7.938	8.266	32.450	C.2	1	RES1	0.000	
9	 C15	9.243	7.785	32.374	C.2	1	RES1	0.000	
10	 C16	9.563	6.683	31.564	C.2	1	RES1	0.000	
11	 C17	8.540	6.102	30.831	C.2	1	RES1	0.000	
12	 C18	4.093	5.413	28.719	C.2	1	RES1	0.000	
13	 C19	2.902	5.388	28.048	C.2	1	RES1	0.000	
14	 C20	2.574	4.198	27.345	C.2	1	RES1	0.000	
15	 C21	3.438	3.118	27.348	C.2	1	RES1	0.000	
16	 C22	4.645	3.172	28.028	C.2	1	RES1	0.000	
17	 C23	5.017	4.339	28.738	C.2	1	RES1	0.000	
@<TRIPOS>BOND
1 1 5 ar
2 1 12 ar
3 4 5 ar
4 4 17 ar
5 5 6 1
6 6 7 ar
7 6 11 ar
8 7 8 ar
9 8 9 ar
10 2 9 1
11 9 10 ar
12 10 11 ar
13 12 13 ar
14 12 17 ar
15 13 14 ar
16 3 14 1
17 14 15 ar
18 15 16 ar
19 16 17 ar
@<TRIPOS>SUBSTRUCTURE
1	RES1	1	GROUP	1 ****	RES
