# created with PyMOL 2.5.2
@<TRIPOS>MOLECULE
ER_1GWQ_TargetProtein
17 19 1                 
SMALL
USER_CHARGES
@<TRIPOS>ATOM
1	  S2	4.755	6.743	29.633	S.2	1	RES1	0.000	
2	  O7	10.224	8.409	33.153	O.3	1	RES1	0.000	
3	  O8	1.386	4.083	26.696	O.3	1	RES1	0.000	
4	 C44	6.174	4.656	29.478	C.2	1	RES1	0.000	
5	 C45	6.190	5.923	30.015	C.2	1	RES1	0.000	
6	 C46	7.227	6.539	30.851	C.2	1	RES1	0.000	
7	 C47	8.558	6.069	30.822	C.2	1	RES1	0.000	
8	 C48	9.566	6.680	31.575	C.2	1	RES1	0.000	
9	 C49	9.254	7.754	32.378	C.2	1	RES1	0.000	
10	 C50	7.951	8.274	32.437	C.2	1	RES1	0.000	
11	 C51	6.950	7.648	31.670	C.2	1	RES1	0.000	
12	 C52	4.132	5.430	28.695	C.2	1	RES1	0.000	
13	 C53	2.891	5.364	28.034	C.2	1	RES1	0.000	
14	 C54	2.558	4.205	27.356	C.2	1	RES1	0.000	
15	 C55	3.428	3.119	27.349	C.2	1	RES1	0.000	
16	 C56	4.632	3.185	28.018	C.2	1	RES1	0.000	
17	 C57	5.007	4.338	28.737	C.2	1	RES1	0.000	
@<TRIPOS>BOND
1 1 5 ar
2 1 12 ar
3 4 5 ar
4 4 17 ar
5 5 6 1
6 6 7 ar
7 6 11 ar
8 7 8 ar
9 8 9 ar
10 2 9 1
11 9 10 ar
12 10 11 ar
13 12 13 ar
14 12 17 ar
15 13 14 ar
16 3 14 1
17 14 15 ar
18 15 16 ar
19 16 17 ar
@<TRIPOS>SUBSTRUCTURE
1	RES1	1	GROUP	1 ****	RES
