# created with PyMOL 2.5.2
@<TRIPOS>MOLECULE
ER_1GWQ_TargetProtein
17 19 1                 
SMALL
USER_CHARGES
@<TRIPOS>ATOM
1	  S2	4.710	6.761	29.606	S.2	1	RES1	0.000	
2	  O7	10.253	8.294	33.174	O.3	1	RES1	0.000	
3	  O8	1.363	4.030	26.700	O.3	1	RES1	0.000	
4	 C42	6.195	4.668	29.431	C.2	1	RES1	0.000	
5	 C43	6.195	5.957	30.017	C.2	1	RES1	0.000	
6	 C44	7.245	6.616	30.823	C.2	1	RES1	0.000	
7	 C45	6.959	7.717	31.659	C.2	1	RES1	0.000	
8	 C46	7.944	8.280	32.441	C.2	1	RES1	0.000	
9	 C47	9.235	7.740	32.408	C.2	1	RES1	0.000	
10	 C48	9.570	6.661	31.592	C.2	1	RES1	0.000	
11	 C49	8.552	6.079	30.819	C.2	1	RES1	0.000	
12	 C50	4.113	5.430	28.717	C.2	1	RES1	0.000	
13	 C51	2.888	5.350	28.046	C.2	1	RES1	0.000	
14	 C52	2.548	4.197	27.379	C.2	1	RES1	0.000	
15	 C53	3.451	3.082	27.347	C.2	1	RES1	0.000	
16	 C54	4.660	3.194	28.035	C.2	1	RES1	0.000	
17	 C55	5.006	4.365	28.706	C.2	1	RES1	0.000	
@<TRIPOS>BOND
1 1 5 ar
2 1 12 ar
3 4 5 ar
4 4 17 ar
5 5 6 1
6 6 7 ar
7 6 11 ar
8 7 8 ar
9 8 9 ar
10 2 9 1
11 9 10 ar
12 10 11 ar
13 12 13 ar
14 12 17 ar
15 13 14 ar
16 3 14 1
17 14 15 ar
18 15 16 ar
19 16 17 ar
@<TRIPOS>SUBSTRUCTURE
1	RES1	1	GROUP	1 ****	RES
