# created with PyMOL 2.5.2
@<TRIPOS>MOLECULE
ER_1GWQ_TargetProtein
17 19 1                 
SMALL
USER_CHARGES
@<TRIPOS>ATOM
1	  S2	4.709	6.770	29.628	S.2	1	RES1	0.000	
2	  O7	10.215	8.352	33.196	O.3	1	RES1	0.000	
3	  O8	1.371	4.040	26.719	O.3	1	RES1	0.000	
4	 C42	6.177	4.666	29.433	C.2	1	RES1	0.000	
5	 C43	6.189	5.952	29.991	C.2	1	RES1	0.000	
6	 C44	7.236	6.595	30.805	C.2	1	RES1	0.000	
7	 C45	6.988	7.707	31.625	C.2	1	RES1	0.000	
8	 C46	7.976	8.276	32.421	C.2	1	RES1	0.000	
9	 C47	9.248	7.725	32.403	C.2	1	RES1	0.000	
10	 C48	9.543	6.639	31.610	C.2	1	RES1	0.000	
11	 C49	8.547	6.072	30.846	C.2	1	RES1	0.000	
12	 C50	4.111	5.426	28.713	C.2	1	RES1	0.000	
13	 C51	2.874	5.351	28.074	C.2	1	RES1	0.000	
14	 C52	2.561	4.186	27.382	C.2	1	RES1	0.000	
15	 C53	3.448	3.111	27.347	C.2	1	RES1	0.000	
16	 C54	4.662	3.191	28.004	C.2	1	RES1	0.000	
17	 C55	5.029	4.361	28.706	C.2	1	RES1	0.000	
@<TRIPOS>BOND
1 1 5 ar
2 1 12 ar
3 4 5 ar
4 4 17 ar
5 5 6 1
6 6 7 ar
7 6 11 ar
8 7 8 ar
9 8 9 ar
10 2 9 1
11 9 10 ar
12 10 11 ar
13 12 13 ar
14 12 17 ar
15 13 14 ar
16 3 14 1
17 14 15 ar
18 15 16 ar
19 16 17 ar
@<TRIPOS>SUBSTRUCTURE
1	RES1	1	GROUP	1 ****	RES
