# created with PyMOL 2.5.2
@<TRIPOS>MOLECULE
ER_2BJ4_TargetProtein
30 32 1                 
SMALL
USER_CHARGES
@<TRIPOS>ATOM
1	  C1	21.846	37.782	26.436	C.3	1	RES1	0.000	
2	  N1	16.164	32.933	36.099	N.3	1	RES1	0.000	
3	  O1	23.179	42.000	32.196	O.3	1	RES1	0.000	
4	  C2	22.546	37.640	27.755	C.3	1	RES1	0.000	
5	  O2	18.478	33.416	33.239	O.3	1	RES1	0.000	
6	  C3	21.759	36.729	28.757	C.3	1	RES1	0.000	
7	  C4	21.446	37.076	30.010	C.3	1	RES1	0.000	
8	  C5	21.880	38.372	30.597	C.2	1	RES1	0.000	
9	  C6	22.602	38.390	31.778	C.2	1	RES1	0.000	
10	  C7	23.044	39.604	32.309	C.2	1	RES1	0.000	
11	  C8	22.758	40.794	31.649	C.2	1	RES1	0.000	
12	  C9	22.022	40.761	30.456	C.2	1	RES1	0.000	
13	 C10	21.602	39.555	29.919	C.2	1	RES1	0.000	
14	 C11	20.637	36.140	30.865	C.2	1	RES1	0.000	
15	 C12	21.049	34.810	31.048	C.2	1	RES1	0.000	
16	 C13	20.318	33.946	31.847	C.2	1	RES1	0.000	
17	 C14	19.139	34.388	32.478	C.2	1	RES1	0.000	
18	 C15	17.457	33.891	34.124	C.3	1	RES1	0.000	
19	 C16	16.744	32.672	34.736	C.3	1	RES1	0.000	
20	 C17	15.549	31.723	36.651	C.3	1	RES1	0.000	
21	 C18	16.571	30.633	37.021	C.3	1	RES1	0.000	
22	 C19	15.183	34.028	36.070	C.3	1	RES1	0.000	
23	 C50	18.730	35.728	32.317	C.2	1	RES1	0.000	
24	 C51	19.492	36.593	31.518	C.2	1	RES1	0.000	
25	 C52	21.351	35.444	28.172	C.2	1	RES1	0.000	
26	 C53	22.287	34.545	27.658	C.2	1	RES1	0.000	
27	 C54	21.914	33.320	27.097	C.2	1	RES1	0.000	
28	 C55	20.561	32.982	27.050	C.2	1	RES1	0.000	
29	 C56	19.604	33.865	27.571	C.2	1	RES1	0.000	
30	 C57	19.969	35.075	28.125	C.2	1	RES1	0.000	
@<TRIPOS>BOND
1 1 4 1
2 2 19 1
3 2 20 1
4 2 22 1
5 3 11 1
6 4 6 1
7 6 7 1
8 6 25 1
9 7 8 1
10 8 9 ar
11 9 10 ar
12 10 11 ar
13 11 12 ar
14 8 13 ar
15 12 13 ar
16 7 14 1
17 14 15 ar
18 14 24 ar
19 15 16 ar
20 16 17 ar
21 5 17 1
22 17 23 ar
23 5 18 1
24 18 19 1
25 20 21 1
26 23 24 ar
27 25 26 ar
28 25 30 ar
29 26 27 ar
30 27 28 ar
31 28 29 ar
32 29 30 ar
@<TRIPOS>SUBSTRUCTURE
1	RES1	1	GROUP	1 ****	RES
