# created with PyMOL 2.5.2
@<TRIPOS>MOLECULE
BTK_5P9J_TargetProtein
33 37 1                 
SMALL
USER_CHARGES
@<TRIPOS>ATOM
1	  C1	18.086	5.107	1.614	C.2	1	RES1	0.000	
2	  N1	17.054	4.628	2.445	N.pl3	1	RES1	0.000	
3	  O1	17.469	5.815	8.498	O.3	1	RES1	0.000	
4	  C2	18.957	5.309	-0.530	C.2	1	RES1	0.000	
5	  N2	17.956	4.902	0.291	N.2	1	RES1	0.000	
6	  O2	22.696	9.648	-1.732	O.3	1	RES1	0.000	
7	  C3	20.175	6.088	1.184	C.2	1	RES1	0.000	
8	  N3	20.130	5.897	-0.131	N.2	1	RES1	0.000	
9	  C4	19.241	5.752	2.114	C.2	1	RES1	0.000	
10	  N4	20.991	6.716	3.214	N.2	1	RES1	0.000	
11	  C5	19.771	6.175	3.348	C.2	1	RES1	0.000	
12	  N5	21.215	6.679	1.896	N.2	1	RES1	0.000	
13	  C6	19.178	6.090	4.679	C.2	1	RES1	0.000	
14	  N6	23.553	9.224	0.379	N.3	1	RES1	0.000	
15	  C7	18.798	4.864	5.229	C.2	1	RES1	0.000	
16	  C8	18.245	4.772	6.510	C.2	1	RES1	0.000	
17	  C9	18.031	5.947	7.234	C.2	1	RES1	0.000	
18	 C10	16.526	6.771	8.901	C.2	1	RES1	0.000	
19	 C11	15.512	7.202	8.047	C.2	1	RES1	0.000	
20	 C12	14.570	8.120	8.532	C.2	1	RES1	0.000	
21	 C13	14.670	8.604	9.847	C.2	1	RES1	0.000	
22	 C14	15.698	8.137	10.672	C.2	1	RES1	0.000	
23	 C15	16.613	7.223	10.209	C.2	1	RES1	0.000	
24	 C16	18.411	7.191	6.709	C.2	1	RES1	0.000	
25	 C17	18.970	7.256	5.445	C.2	1	RES1	0.000	
26	 C18	22.462	7.215	1.339	C.3	1	RES1	0.000	
27	 C19	23.646	7.059	2.314	C.3	1	RES1	0.000	
28	 C20	24.932	7.668	1.742	C.3	1	RES1	0.000	
29	 C21	24.688	9.114	1.290	C.3	1	RES1	0.000	
30	 C22	23.586	9.786	-0.919	C.3	1	RES1	0.000	
31	 C23	24.829	10.590	-1.279	C.3	1	RES1	0.000	
32	 C24	24.830	11.951	-0.643	C.3	1	RES1	0.000	
33	 C43	22.298	8.656	0.908	C.3	1	RES1	0.000	
@<TRIPOS>BOND
1 1 2 1
2 1 5 ar
3 1 9 ar
4 3 17 1
5 3 18 1
6 4 8 ar
7 4 5 ar
8 6 30 1
9 7 8 ar
10 7 9 ar
11 7 12 ar
12 9 11 ar
13 10 11 ar
14 10 12 ar
15 11 13 1
16 13 15 ar
17 15 16 ar
18 16 17 ar
19 18 19 ar
20 18 23 ar
21 19 20 ar
22 20 21 ar
23 21 22 ar
24 22 23 ar
25 17 24 ar
26 24 25 ar
27 13 25 ar
28 12 26 1
29 26 27 1
30 26 33 1
31 27 28 1
32 28 29 1
33 14 29 1
34 14 30 1
35 30 31 1
36 31 32 1
37 14 33 1
@<TRIPOS>SUBSTRUCTURE
1	RES1	1	GROUP	1 ****	RES
