# created with PyMOL 2.5.2
@<TRIPOS>MOLECULE
ER_1GWQ_TargetProtein
17 19 1                 
SMALL
USER_CHARGES
@<TRIPOS>ATOM
1	  S2	4.736	6.761	29.604	S.2	1	RES1	0.000	
2	  O7	10.232	8.378	33.140	O.3	1	RES1	0.000	
3	  O8	1.390	4.084	26.675	O.3	1	RES1	0.000	
4	 C40	6.169	4.642	29.482	C.2	1	RES1	0.000	
5	 C41	6.183	5.920	30.042	C.2	1	RES1	0.000	
6	 C42	7.220	6.535	30.861	C.2	1	RES1	0.000	
7	 C43	8.549	6.074	30.802	C.2	1	RES1	0.000	
8	 C44	9.551	6.693	31.561	C.2	1	RES1	0.000	
9	 C45	9.264	7.770	32.387	C.2	1	RES1	0.000	
10	 C46	7.960	8.265	32.434	C.2	1	RES1	0.000	
11	 C47	6.955	7.655	31.699	C.2	1	RES1	0.000	
12	 C48	4.120	5.442	28.706	C.2	1	RES1	0.000	
13	 C49	2.897	5.382	28.051	C.2	1	RES1	0.000	
14	 C50	2.575	4.192	27.359	C.2	1	RES1	0.000	
15	 C51	3.429	3.091	27.360	C.2	1	RES1	0.000	
16	 C52	4.643	3.169	28.030	C.2	1	RES1	0.000	
17	 C53	5.014	4.364	28.713	C.2	1	RES1	0.000	
@<TRIPOS>BOND
1 1 5 ar
2 1 12 ar
3 4 5 ar
4 4 17 ar
5 5 6 1
6 6 7 ar
7 6 11 ar
8 7 8 ar
9 8 9 ar
10 2 9 1
11 9 10 ar
12 10 11 ar
13 12 13 ar
14 12 17 ar
15 13 14 ar
16 3 14 1
17 14 15 ar
18 15 16 ar
19 16 17 ar
@<TRIPOS>SUBSTRUCTURE
1	RES1	1	GROUP	1 ****	RES
