# created with PyMOL 2.5.2
@<TRIPOS>MOLECULE
BRD4_6YQN_TargetProtein
24 27 1                 
SMALL
USER_CHARGES
@<TRIPOS>ATOM
1	 CL1	25.714	17.884	-6.986	Cl	1	RES1	0.000	
2	  S1	28.513	16.301	1.366	S.2	1	RES1	0.000	
3	  N6	30.563	15.783	-2.878	N.2	1	RES1	0.000	
4	  N7	30.784	16.814	-0.002	N.2	1	RES1	0.000	
5	  N8	32.703	17.767	0.559	N.2	1	RES1	0.000	
6	  N9	32.926	16.964	-0.516	N.2	1	RES1	0.000	
7	 C24	32.840	14.943	-2.600	C.3	1	RES1	0.000	
8	 C25	31.553	15.319	-1.860	C.3	1	RES1	0.000	
9	 C26	29.312	16.024	-2.544	C.2	1	RES1	0.000	
10	 C27	28.418	16.512	-3.655	C.2	1	RES1	0.000	
11	 C28	28.709	16.132	-4.971	C.2	1	RES1	0.000	
12	 C29	27.889	16.550	-6.015	C.2	1	RES1	0.000	
13	 C30	26.770	17.332	-5.731	C.2	1	RES1	0.000	
14	 C31	26.483	17.738	-4.390	C.2	1	RES1	0.000	
15	 C32	27.313	17.318	-3.364	C.2	1	RES1	0.000	
16	 C33	28.798	15.892	-1.175	C.2	1	RES1	0.000	
17	 C34	29.460	16.347	-0.060	C.2	1	RES1	0.000	
18	 C35	27.225	15.503	0.521	C.2	1	RES1	0.000	
19	 C36	26.041	15.090	1.280	C.3	1	RES1	0.000	
20	 C37	27.525	15.306	-0.823	C.2	1	RES1	0.000	
21	 C38	26.626	14.582	-1.742	C.3	1	RES1	0.000	
22	 C39	31.444	17.689	0.868	C.2	1	RES1	0.000	
23	 C40	30.812	18.509	1.948	C.3	1	RES1	0.000	
24	 C41	31.790	16.388	-0.842	C.2	1	RES1	0.000	
@<TRIPOS>BOND
1 1 13 1
2 2 17 ar
3 2 18 ar
4 5 6 ar
5 7 8 1
6 3 8 1
7 8 24 1
8 3 9 2
9 9 10 1
10 9 16 1
11 10 11 ar
12 10 15 ar
13 11 12 ar
14 12 13 ar
15 13 14 ar
16 14 15 ar
17 16 17 ar
18 16 20 ar
19 4 17 1
20 18 19 1
21 18 20 ar
22 20 21 1
23 4 22 ar
24 5 22 ar
25 22 23 1
26 4 24 ar
27 6 24 ar
@<TRIPOS>SUBSTRUCTURE
1	RES1	1	GROUP	1 ****	RES
