# created with PyMOL 2.5.2
@<TRIPOS>MOLECULE
BRD4_6YQN_TargetProtein
24 27 1                 
SMALL
USER_CHARGES
@<TRIPOS>ATOM
1	 CL1	25.758	17.920	-6.992	Cl	1	RES1	0.000	
2	  S1	28.495	16.307	1.348	S.2	1	RES1	0.000	
3	  N6	30.568	15.762	-2.871	N.2	1	RES1	0.000	
4	  N7	30.777	16.812	0.004	N.2	1	RES1	0.000	
5	  N8	32.688	17.775	0.522	N.2	1	RES1	0.000	
6	  N9	32.928	16.982	-0.510	N.2	1	RES1	0.000	
7	 C26	32.834	14.956	-2.603	C.3	1	RES1	0.000	
8	 C27	31.552	15.333	-1.866	C.3	1	RES1	0.000	
9	 C28	29.337	15.999	-2.551	C.2	1	RES1	0.000	
10	 C29	28.422	16.480	-3.633	C.2	1	RES1	0.000	
11	 C30	28.682	16.121	-4.982	C.2	1	RES1	0.000	
12	 C31	27.865	16.549	-6.000	C.2	1	RES1	0.000	
13	 C32	26.768	17.360	-5.730	C.2	1	RES1	0.000	
14	 C33	26.484	17.733	-4.397	C.2	1	RES1	0.000	
15	 C34	27.328	17.308	-3.366	C.2	1	RES1	0.000	
16	 C35	28.804	15.896	-1.187	C.2	1	RES1	0.000	
17	 C36	29.460	16.360	-0.042	C.2	1	RES1	0.000	
18	 C37	27.258	15.514	0.524	C.2	1	RES1	0.000	
19	 C38	26.036	15.098	1.291	C.3	1	RES1	0.000	
20	 C39	27.524	15.292	-0.810	C.2	1	RES1	0.000	
21	 C40	26.614	14.568	-1.726	C.3	1	RES1	0.000	
22	 C41	31.418	17.684	0.872	C.2	1	RES1	0.000	
23	 C42	30.808	18.485	1.945	C.3	1	RES1	0.000	
24	 C43	31.795	16.389	-0.850	C.2	1	RES1	0.000	
@<TRIPOS>BOND
1 1 13 1
2 2 17 ar
3 2 18 ar
4 5 6 ar
5 7 8 1
6 3 8 1
7 8 24 1
8 3 9 2
9 9 10 1
10 9 16 1
11 10 11 ar
12 10 15 ar
13 11 12 ar
14 12 13 ar
15 13 14 ar
16 14 15 ar
17 16 17 ar
18 16 20 ar
19 4 17 1
20 18 19 1
21 18 20 ar
22 20 21 1
23 4 22 ar
24 5 22 ar
25 22 23 1
26 4 24 ar
27 6 24 ar
@<TRIPOS>SUBSTRUCTURE
1	RES1	1	GROUP	1 ****	RES
