# created with PyMOL 2.5.2
@<TRIPOS>MOLECULE
BRD4_6YQN_TargetProtein
24 27 1                 
SMALL
USER_CHARGES
@<TRIPOS>ATOM
1	 CL1	25.739	17.890	-7.006	Cl	1	RES1	0.000	
2	  S1	28.514	16.312	1.355	S.2	1	RES1	0.000	
3	  N6	30.590	15.775	-2.877	N.2	1	RES1	0.000	
4	  N7	30.786	16.817	0.009	N.2	1	RES1	0.000	
5	  N8	32.695	17.774	0.545	N.2	1	RES1	0.000	
6	  N9	32.928	16.969	-0.531	N.2	1	RES1	0.000	
7	 C28	32.837	14.947	-2.609	C.3	1	RES1	0.000	
8	 C29	31.562	15.314	-1.864	C.3	1	RES1	0.000	
9	 C30	29.345	16.001	-2.560	C.2	1	RES1	0.000	
10	 C31	28.427	16.476	-3.653	C.2	1	RES1	0.000	
11	 C32	28.694	16.128	-4.977	C.2	1	RES1	0.000	
12	 C33	27.875	16.547	-5.991	C.2	1	RES1	0.000	
13	 C34	26.753	17.364	-5.710	C.2	1	RES1	0.000	
14	 C35	26.497	17.755	-4.374	C.2	1	RES1	0.000	
15	 C36	27.315	17.321	-3.344	C.2	1	RES1	0.000	
16	 C37	28.802	15.888	-1.174	C.2	1	RES1	0.000	
17	 C38	29.464	16.371	-0.078	C.2	1	RES1	0.000	
18	 C39	27.233	15.496	0.530	C.2	1	RES1	0.000	
19	 C40	26.013	15.108	1.288	C.3	1	RES1	0.000	
20	 C41	27.535	15.298	-0.825	C.2	1	RES1	0.000	
21	 C42	26.616	14.556	-1.738	C.3	1	RES1	0.000	
22	 C43	31.420	17.690	0.869	C.2	1	RES1	0.000	
23	 C44	30.792	18.502	1.951	C.3	1	RES1	0.000	
24	 C45	31.771	16.383	-0.849	C.2	1	RES1	0.000	
@<TRIPOS>BOND
1 1 13 1
2 2 17 ar
3 2 18 ar
4 5 6 ar
5 7 8 1
6 3 8 1
7 8 24 1
8 3 9 2
9 9 10 1
10 9 16 1
11 10 11 ar
12 10 15 ar
13 11 12 ar
14 12 13 ar
15 13 14 ar
16 14 15 ar
17 16 17 ar
18 16 20 ar
19 4 17 1
20 18 19 1
21 18 20 ar
22 20 21 1
23 4 22 ar
24 5 22 ar
25 22 23 1
26 4 24 ar
27 6 24 ar
@<TRIPOS>SUBSTRUCTURE
1	RES1	1	GROUP	1 ****	RES
