# created with PyMOL 2.5.2
@<TRIPOS>MOLECULE
BRD4_6YQN_TargetProtein
24 27 1                 
SMALL
USER_CHARGES
@<TRIPOS>ATOM
1	 CL1	25.735	17.913	-6.988	Cl	1	RES1	0.000	
2	  S1	28.499	16.324	1.375	S.2	1	RES1	0.000	
3	  N6	30.573	15.755	-2.861	N.2	1	RES1	0.000	
4	  N7	30.771	16.807	0.010	N.2	1	RES1	0.000	
5	  N8	32.689	17.788	0.546	N.2	1	RES1	0.000	
6	  N9	32.915	16.963	-0.528	N.2	1	RES1	0.000	
7	 C30	32.839	14.952	-2.614	C.3	1	RES1	0.000	
8	 C31	31.547	15.329	-1.855	C.3	1	RES1	0.000	
9	 C32	29.326	16.033	-2.571	C.2	1	RES1	0.000	
10	 C33	28.433	16.486	-3.656	C.2	1	RES1	0.000	
11	 C34	28.691	16.106	-4.976	C.2	1	RES1	0.000	
12	 C35	27.861	16.546	-6.004	C.2	1	RES1	0.000	
13	 C36	26.766	17.355	-5.712	C.2	1	RES1	0.000	
14	 C37	26.495	17.744	-4.430	C.2	1	RES1	0.000	
15	 C38	27.325	17.320	-3.364	C.2	1	RES1	0.000	
16	 C39	28.831	15.898	-1.175	C.2	1	RES1	0.000	
17	 C40	29.472	16.353	-0.082	C.2	1	RES1	0.000	
18	 C41	27.235	15.495	0.528	C.2	1	RES1	0.000	
19	 C42	26.029	15.094	1.280	C.3	1	RES1	0.000	
20	 C43	27.533	15.286	-0.798	C.2	1	RES1	0.000	
21	 C44	26.623	14.570	-1.721	C.3	1	RES1	0.000	
22	 C45	31.433	17.693	0.868	C.2	1	RES1	0.000	
23	 C46	30.812	18.481	1.966	C.3	1	RES1	0.000	
24	 C47	31.768	16.390	-0.848	C.2	1	RES1	0.000	
@<TRIPOS>BOND
1 1 13 1
2 2 17 ar
3 2 18 ar
4 5 6 ar
5 7 8 1
6 3 8 1
7 8 24 1
8 3 9 2
9 9 10 1
10 9 16 1
11 10 11 ar
12 10 15 ar
13 11 12 ar
14 12 13 ar
15 13 14 ar
16 14 15 ar
17 16 17 ar
18 16 20 ar
19 4 17 1
20 18 19 1
21 18 20 ar
22 20 21 1
23 4 22 ar
24 5 22 ar
25 22 23 1
26 4 24 ar
27 6 24 ar
@<TRIPOS>SUBSTRUCTURE
1	RES1	1	GROUP	1 ****	RES
