# created with PyMOL 2.5.2
@<TRIPOS>MOLECULE
BRD4_6YQN_TargetProtein
24 27 1                 
SMALL
USER_CHARGES
@<TRIPOS>ATOM
1	 CL1	25.744	17.907	-7.004	Cl	1	RES1	0.000	
2	  S1	28.524	16.313	1.342	S.2	1	RES1	0.000	
3	  N6	30.569	15.779	-2.872	N.2	1	RES1	0.000	
4	  N7	30.787	16.816	-0.001	N.2	1	RES1	0.000	
5	  N8	32.715	17.772	0.550	N.2	1	RES1	0.000	
6	  N9	32.913	16.987	-0.525	N.2	1	RES1	0.000	
7	 C32	32.842	14.949	-2.582	C.3	1	RES1	0.000	
8	 C33	31.568	15.326	-1.854	C.3	1	RES1	0.000	
9	 C34	29.327	16.003	-2.576	C.2	1	RES1	0.000	
10	 C35	28.399	16.475	-3.658	C.2	1	RES1	0.000	
11	 C36	28.688	16.123	-4.989	C.2	1	RES1	0.000	
12	 C37	27.865	16.552	-5.994	C.2	1	RES1	0.000	
13	 C38	26.771	17.368	-5.706	C.2	1	RES1	0.000	
14	 C39	26.490	17.735	-4.390	C.2	1	RES1	0.000	
15	 C40	27.334	17.300	-3.353	C.2	1	RES1	0.000	
16	 C41	28.808	15.874	-1.195	C.2	1	RES1	0.000	
17	 C42	29.450	16.366	-0.058	C.2	1	RES1	0.000	
18	 C43	27.223	15.500	0.509	C.2	1	RES1	0.000	
19	 C44	26.036	15.093	1.301	C.3	1	RES1	0.000	
20	 C45	27.531	15.292	-0.802	C.2	1	RES1	0.000	
21	 C46	26.603	14.583	-1.734	C.3	1	RES1	0.000	
22	 C47	31.431	17.690	0.860	C.2	1	RES1	0.000	
23	 C48	30.799	18.502	1.958	C.3	1	RES1	0.000	
24	 C49	31.787	16.379	-0.838	C.2	1	RES1	0.000	
@<TRIPOS>BOND
1 1 13 1
2 2 17 ar
3 2 18 ar
4 5 6 ar
5 7 8 1
6 3 8 1
7 8 24 1
8 3 9 2
9 9 10 1
10 9 16 1
11 10 11 ar
12 10 15 ar
13 11 12 ar
14 12 13 ar
15 13 14 ar
16 14 15 ar
17 16 17 ar
18 16 20 ar
19 4 17 1
20 18 19 1
21 18 20 ar
22 20 21 1
23 4 22 ar
24 5 22 ar
25 22 23 1
26 4 24 ar
27 6 24 ar
@<TRIPOS>SUBSTRUCTURE
1	RES1	1	GROUP	1 ****	RES
