# created with PyMOL 2.5.2
@<TRIPOS>MOLECULE
CRBN_6H0G_TargetProtein
20 22 1                 
SMALL
USER_CHARGES
@<TRIPOS>ATOM
1	  N4	1.967	54.421	-85.630	N.pl3	1	RES1	0.000	
2	  N5	1.741	51.788	-82.111	N.2	1	RES1	0.000	
3	  N6	1.986	50.056	-78.864	N.pl3	1	RES1	0.000	
4	  O7	2.823	53.743	-82.858	O.2	1	RES1	0.000	
5	  O8	3.686	49.665	-77.413	O.3	1	RES1	0.000	
6	  O9	0.203	50.407	-80.229	O.2	1	RES1	0.000	
7	 O10	0.429	49.831	-82.228	O.2	1	RES1	0.000	
8	 C22	1.346	53.205	-85.447	C.2	1	RES1	0.000	
9	 C23	0.525	52.669	-86.454	C.2	1	RES1	0.000	
10	 C24	-0.192	51.468	-86.274	C.2	1	RES1	0.000	
11	 C25	-0.134	50.802	-85.061	C.2	1	RES1	0.000	
12	 C26	0.654	51.332	-84.060	C.2	1	RES1	0.000	
13	 C27	1.360	52.501	-84.251	C.2	1	RES1	0.000	
14	 C28	2.063	52.807	-83.008	C.2	1	RES1	0.000	
15	 C29	2.248	51.654	-80.735	C.3	1	RES1	0.000	
16	 C30	3.724	51.283	-80.644	C.3	1	RES1	0.000	
17	 C31	4.118	51.196	-79.202	C.3	1	RES1	0.000	
18	 C32	3.272	50.223	-78.422	C.3	1	RES1	0.000	
19	 C33	1.393	50.652	-79.973	C.2	1	RES1	0.000	
20	 C34	0.909	50.890	-82.701	C.2	1	RES1	0.000	
@<TRIPOS>BOND
1 7 20 2
2 1 8 1
3 8 9 ar
4 8 13 ar
5 9 10 ar
6 10 11 ar
7 11 12 ar
8 12 13 ar
9 12 20 ar
10 13 14 ar
11 2 14 ar
12 4 14 2
13 2 15 1
14 15 16 1
15 15 19 1
16 16 17 1
17 17 18 1
18 3 18 1
19 5 18 1
20 3 19 1
21 6 19 2
22 2 20 ar
@<TRIPOS>SUBSTRUCTURE
1	RES1	1	GROUP	1 ****	RES
