# created with PyMOL 2.5.2
@<TRIPOS>MOLECULE
CRBN_6H0G_TargetProtein
20 22 1                 
SMALL
USER_CHARGES
@<TRIPOS>ATOM
1	  N4	1.961	54.428	-85.608	N.pl3	1	RES1	0.000	
2	  N5	1.724	51.828	-82.097	N.2	1	RES1	0.000	
3	  N6	2.005	50.045	-78.890	N.pl3	1	RES1	0.000	
4	  O8	2.803	53.772	-82.846	O.2	1	RES1	0.000	
5	  O9	3.689	49.626	-77.442	O.3	1	RES1	0.000	
6	 O10	0.218	50.429	-80.222	O.2	1	RES1	0.000	
7	 O11	0.452	49.850	-82.220	O.2	1	RES1	0.000	
8	 C24	1.338	53.189	-85.457	C.2	1	RES1	0.000	
9	 C25	0.510	52.655	-86.466	C.2	1	RES1	0.000	
10	 C26	-0.187	51.446	-86.277	C.2	1	RES1	0.000	
11	 C27	-0.097	50.768	-85.064	C.2	1	RES1	0.000	
12	 C28	0.677	51.348	-84.049	C.2	1	RES1	0.000	
13	 C29	1.361	52.507	-84.244	C.2	1	RES1	0.000	
14	 C30	2.068	52.835	-83.009	C.2	1	RES1	0.000	
15	 C31	2.220	51.684	-80.725	C.3	1	RES1	0.000	
16	 C32	3.684	51.276	-80.662	C.3	1	RES1	0.000	
17	 C33	4.140	51.181	-79.203	C.3	1	RES1	0.000	
18	 C34	3.268	50.217	-78.424	C.3	1	RES1	0.000	
19	 C35	1.377	50.642	-79.965	C.2	1	RES1	0.000	
20	 C36	0.915	50.866	-82.694	C.2	1	RES1	0.000	
@<TRIPOS>BOND
1 6 19 2
2 7 20 2
3 1 8 1
4 8 9 ar
5 8 13 ar
6 9 10 ar
7 10 11 ar
8 11 12 ar
9 12 13 ar
10 12 20 ar
11 13 14 ar
12 2 14 ar
13 4 14 2
14 2 15 1
15 15 16 1
16 15 19 1
17 16 17 1
18 17 18 1
19 3 18 1
20 5 18 1
21 3 19 1
22 2 20 ar
@<TRIPOS>SUBSTRUCTURE
1	RES1	1	GROUP	1 ****	RES
