# created with PyMOL 2.5.2
@<TRIPOS>MOLECULE
CRBN_6H0G_TargetProtein
20 22 1                 
SMALL
USER_CHARGES
@<TRIPOS>ATOM
1	  N4	1.976	54.435	-85.615	N.pl3	1	RES1	0.000	
2	  N5	1.732	51.796	-82.113	N.2	1	RES1	0.000	
3	  N6	1.997	50.060	-78.860	N.pl3	1	RES1	0.000	
4	  O8	2.821	53.767	-82.860	O.2	1	RES1	0.000	
5	  O9	3.686	49.668	-77.413	O.2	1	RES1	0.000	
6	 O10	0.195	50.434	-80.204	O.2	1	RES1	0.000	
7	 O11	0.436	49.818	-82.245	O.2	1	RES1	0.000	
8	 C27	1.321	53.205	-85.445	C.2	1	RES1	0.000	
9	 C28	0.516	52.660	-86.460	C.2	1	RES1	0.000	
10	 C29	-0.177	51.485	-86.276	C.2	1	RES1	0.000	
11	 C30	-0.124	50.772	-85.083	C.2	1	RES1	0.000	
12	 C31	0.664	51.339	-84.065	C.2	1	RES1	0.000	
13	 C32	1.371	52.506	-84.233	C.2	1	RES1	0.000	
14	 C33	2.068	52.813	-83.003	C.2	1	RES1	0.000	
15	 C34	2.242	51.654	-80.730	C.3	1	RES1	0.000	
16	 C35	3.700	51.269	-80.673	C.3	1	RES1	0.000	
17	 C36	4.148	51.170	-79.218	C.3	1	RES1	0.000	
18	 C37	3.278	50.238	-78.421	C.2	1	RES1	0.000	
19	 C38	1.365	50.651	-79.954	C.2	1	RES1	0.000	
20	 C39	0.910	50.854	-82.695	C.2	1	RES1	0.000	
@<TRIPOS>BOND
1 6 19 2
2 7 20 2
3 1 8 1
4 8 9 ar
5 8 13 ar
6 9 10 ar
7 10 11 ar
8 11 12 ar
9 12 13 ar
10 12 20 ar
11 13 14 ar
12 2 14 ar
13 4 14 2
14 2 15 1
15 15 16 1
16 15 19 1
17 16 17 1
18 17 18 1
19 3 18 1
20 5 18 2
21 3 19 1
22 2 20 ar
@<TRIPOS>SUBSTRUCTURE
1	RES1	1	GROUP	1 ****	RES
