# created with PyMOL 2.5.2
@<TRIPOS>MOLECULE
CRBN_6H0G_TargetProtein
20 22 1                 
SMALL
USER_CHARGES
@<TRIPOS>ATOM
1	  N4	1.999	54.433	-85.633	N.pl3	1	RES1	0.000	
2	  N5	1.755	51.785	-82.117	N.2	1	RES1	0.000	
3	  N6	1.965	50.045	-78.867	N.pl3	1	RES1	0.000	
4	  O7	2.867	53.744	-82.863	O.2	1	RES1	0.000	
5	  O8	3.654	49.675	-77.396	O.3	1	RES1	0.000	
6	  O9	0.228	50.395	-80.287	O.2	1	RES1	0.000	
7	 O10	0.409	49.850	-82.228	O.2	1	RES1	0.000	
8	 C32	1.317	53.201	-85.464	C.2	1	RES1	0.000	
9	 C33	0.496	52.680	-86.465	C.2	1	RES1	0.000	
10	 C34	-0.224	51.461	-86.270	C.2	1	RES1	0.000	
11	 C35	-0.149	50.792	-85.048	C.2	1	RES1	0.000	
12	 C36	0.662	51.354	-84.049	C.2	1	RES1	0.000	
13	 C37	1.358	52.496	-84.229	C.2	1	RES1	0.000	
14	 C38	2.081	52.796	-83.000	C.2	1	RES1	0.000	
15	 C39	2.253	51.654	-80.747	C.3	1	RES1	0.000	
16	 C40	3.737	51.282	-80.640	C.3	1	RES1	0.000	
17	 C41	4.151	51.208	-79.173	C.3	1	RES1	0.000	
18	 C42	3.261	50.238	-78.404	C.3	1	RES1	0.000	
19	 C43	1.399	50.622	-79.992	C.2	1	RES1	0.000	
20	 C44	0.907	50.882	-82.693	C.2	1	RES1	0.000	
@<TRIPOS>BOND
1 7 20 2
2 1 8 1
3 8 9 ar
4 8 13 ar
5 9 10 ar
6 10 11 ar
7 11 12 ar
8 12 13 ar
9 12 20 ar
10 13 14 ar
11 2 14 ar
12 4 14 2
13 2 15 1
14 15 16 1
15 15 19 1
16 16 17 1
17 17 18 1
18 3 18 1
19 5 18 1
20 3 19 1
21 6 19 2
22 2 20 ar
@<TRIPOS>SUBSTRUCTURE
1	RES1	1	GROUP	1 ****	RES
