# created with PyMOL 2.5.2
@<TRIPOS>MOLECULE
BRD2_4ALH_TargetProtein
35 40 1                 
SMALL
USER_CHARGES
@<TRIPOS>ATOM
1	  C1	-2.347	9.102	26.562	C.3	1	RES1	0.000	
2	  N1	-1.826	8.500	24.201	N.2	1	RES1	0.000	
3	  O1	4.885	6.907	26.757	O.2	1	RES1	0.000	
4	  C2	-2.595	8.132	25.410	C.3	1	RES1	0.000	
5	  N2	-2.504	9.080	23.172	N.2	1	RES1	0.000	
6	  C3	-1.548	9.244	22.239	C.2	1	RES1	0.000	
7	  N3	0.338	7.753	24.860	N.pl3	1	RES1	0.000	
8	  C4	-1.884	9.873	20.896	C.3	1	RES1	0.000	
9	  N4	2.519	6.818	25.329	N.2	1	RES1	0.000	
10	  C5	-2.932	10.968	20.860	C.3	1	RES1	0.000	
11	  C6	-3.272	9.623	20.305	C.3	1	RES1	0.000	
12	  C7	-0.298	8.782	22.662	C.2	1	RES1	0.000	
13	  O7	-3.086	5.322	20.994	O.3	1	RES1	0.000	
14	  C8	-0.480	8.329	23.961	C.2	1	RES1	0.000	
15	  O8	-2.401	2.192	17.794	O.2	1	RES1	0.000	
16	  C9	1.348	6.777	24.644	C.2	1	RES1	0.000	
17	 C10	3.470	5.938	25.116	C.2	1	RES1	0.000	
18	 N10	3.463	4.902	24.221	N.2	1	RES1	0.000	
19	 C11	4.698	6.045	25.915	C.2	1	RES1	0.000	
20	 N11	-3.503	1.904	18.620	N.2	1	RES1	0.000	
21	 N12	2.014	3.966	22.625	N.2	1	RES1	0.000	
22	 C31	2.302	4.874	23.570	C.2	1	RES1	0.000	
23	 C32	1.226	5.738	23.692	C.2	1	RES1	0.000	
24	 C33	0.215	5.258	22.755	C.2	1	RES1	0.000	
25	 C34	-1.065	5.669	22.417	C.2	1	RES1	0.000	
26	 C35	-1.778	4.958	21.420	C.2	1	RES1	0.000	
27	 C36	-3.767	6.353	21.781	C.3	1	RES1	0.000	
28	 C37	-1.218	3.862	20.788	C.2	1	RES1	0.000	
29	 C38	-1.933	3.115	19.742	C.2	1	RES1	0.000	
30	 C39	-1.490	2.922	18.445	C.2	1	RES1	0.000	
31	 C40	-0.301	3.313	17.717	C.3	1	RES1	0.000	
32	 C41	-3.187	2.453	19.791	C.2	1	RES1	0.000	
33	 C42	-4.145	2.333	20.932	C.3	1	RES1	0.000	
34	 C43	0.074	3.452	21.117	C.2	1	RES1	0.000	
35	 C44	0.744	4.140	22.082	C.2	1	RES1	0.000	
@<TRIPOS>BOND
1 1 4 1
2 2 4 1
3 2 5 ar
4 2 14 ar
5 3 19 2
6 5 6 ar
7 6 8 1
8 6 12 ar
9 7 14 1
10 7 16 1
11 8 10 1
12 8 11 1
13 9 16 ar
14 10 11 1
15 12 14 ar
16 9 17 ar
17 17 18 ar
18 17 19 1
19 18 22 ar
20 15 20 ar
21 20 32 ar
22 21 22 ar
23 21 35 ar
24 22 23 ar
25 16 23 ar
26 23 24 ar
27 24 25 ar
28 24 35 ar
29 25 26 ar
30 13 26 1
31 26 28 ar
32 13 27 1
33 28 29 1
34 28 34 ar
35 29 30 ar
36 29 32 ar
37 15 30 ar
38 30 31 1
39 32 33 1
40 34 35 ar
@<TRIPOS>SUBSTRUCTURE
1	RES1	1	GROUP	1 ****	RES
