# created with PyMOL 2.5.2
@<TRIPOS>MOLECULE
CRBN_6H0G_TargetProtein
20 22 1                 
SMALL
USER_CHARGES
@<TRIPOS>ATOM
1	  N4	1.951	54.448	-85.595	N.pl3	1	RES1	0.000	
2	  N5	1.715	51.792	-82.097	N.2	1	RES1	0.000	
3	  N6	1.989	50.091	-78.841	N.pl3	1	RES1	0.000	
4	  O7	2.787	53.755	-82.847	O.2	1	RES1	0.000	
5	  O8	3.703	49.660	-77.426	O.2	1	RES1	0.000	
6	  O9	0.183	50.486	-80.159	O.2	1	RES1	0.000	
7	 O10	0.452	49.809	-82.277	O.2	1	RES1	0.000	
8	 C34	1.325	53.216	-85.435	C.2	1	RES1	0.000	
9	 C35	0.545	52.664	-86.456	C.2	1	RES1	0.000	
10	 C36	-0.150	51.469	-86.297	C.2	1	RES1	0.000	
11	 C37	-0.103	50.783	-85.091	C.2	1	RES1	0.000	
12	 C38	0.665	51.323	-84.083	C.2	1	RES1	0.000	
13	 C39	1.342	52.487	-84.225	C.2	1	RES1	0.000	
14	 C40	2.054	52.803	-82.989	C.2	1	RES1	0.000	
15	 C41	2.236	51.640	-80.728	C.3	1	RES1	0.000	
16	 C42	3.697	51.232	-80.705	C.3	1	RES1	0.000	
17	 C43	4.161	51.163	-79.240	C.3	1	RES1	0.000	
18	 C44	3.299	50.245	-78.429	C.2	1	RES1	0.000	
19	 C45	1.365	50.682	-79.941	C.2	1	RES1	0.000	
20	 C46	0.910	50.844	-82.705	C.2	1	RES1	0.000	
@<TRIPOS>BOND
1 7 20 2
2 1 8 1
3 8 9 ar
4 8 13 ar
5 9 10 ar
6 10 11 ar
7 11 12 ar
8 12 13 ar
9 12 20 ar
10 13 14 ar
11 2 14 ar
12 4 14 2
13 2 15 1
14 15 16 1
15 15 19 1
16 16 17 1
17 17 18 1
18 3 18 1
19 5 18 2
20 3 19 1
21 6 19 2
22 2 20 ar
@<TRIPOS>SUBSTRUCTURE
1	RES1	1	GROUP	1 ****	RES
