# created with PyMOL 2.5.2
@<TRIPOS>MOLECULE
CRBN_6H0G_TargetProtein
20 22 1                 
SMALL
USER_CHARGES
@<TRIPOS>ATOM
1	  N4	2.112	54.383	-85.626	N.pl3	1	RES1	0.000	
2	  N5	1.755	51.714	-82.128	N.2	1	RES1	0.000	
3	  N6	2.020	50.062	-78.861	N.pl3	1	RES1	0.000	
4	  O8	2.775	53.722	-82.789	O.2	1	RES1	0.000	
5	  O9	3.711	49.757	-77.383	O.2	1	RES1	0.000	
6	 O10	0.266	50.303	-80.271	O.2	1	RES1	0.000	
7	 O11	0.303	49.846	-82.283	O.2	1	RES1	0.000	
8	 C34	1.323	53.218	-85.416	C.2	1	RES1	0.000	
9	 C35	0.553	52.700	-86.461	C.2	1	RES1	0.000	
10	 C36	-0.217	51.503	-86.295	C.2	1	RES1	0.000	
11	 C37	-0.167	50.817	-85.090	C.2	1	RES1	0.000	
12	 C38	0.624	51.338	-84.073	C.2	1	RES1	0.000	
13	 C39	1.357	52.484	-84.240	C.2	1	RES1	0.000	
14	 C40	2.064	52.752	-82.991	C.2	1	RES1	0.000	
15	 C41	2.228	51.623	-80.759	C.3	1	RES1	0.000	
16	 C42	3.718	51.332	-80.655	C.3	1	RES1	0.000	
17	 C43	4.116	51.304	-79.169	C.3	1	RES1	0.000	
18	 C44	3.298	50.286	-78.364	C.2	1	RES1	0.000	
19	 C45	1.424	50.602	-79.979	C.2	1	RES1	0.000	
20	 C46	0.865	50.849	-82.731	C.2	1	RES1	0.000	
@<TRIPOS>BOND
1 6 19 2
2 7 20 2
3 1 8 1
4 8 9 ar
5 8 13 ar
6 9 10 ar
7 10 11 ar
8 11 12 ar
9 12 13 ar
10 12 20 ar
11 13 14 ar
12 2 14 ar
13 4 14 2
14 2 15 1
15 15 16 1
16 15 19 1
17 16 17 1
18 17 18 1
19 3 18 1
20 5 18 2
21 3 19 1
22 2 20 ar
@<TRIPOS>SUBSTRUCTURE
1	RES1	1	GROUP	1 ****	RES
