# created with PyMOL 2.5.2
@<TRIPOS>MOLECULE
CRBN_6H0G_TargetProtein
20 22 1                 
SMALL
USER_CHARGES
@<TRIPOS>ATOM
1	  N4	1.977	54.431	-85.599	N.pl3	1	RES1	0.000	
2	  N5	1.724	51.801	-82.105	N.2	1	RES1	0.000	
3	  N6	2.003	50.060	-78.871	N.pl3	1	RES1	0.000	
4	 O11	2.803	53.776	-82.843	O.2	1	RES1	0.000	
5	 O12	3.699	49.667	-77.434	O.2	1	RES1	0.000	
6	 O13	0.202	50.448	-80.202	O.2	1	RES1	0.000	
7	 O14	0.449	49.835	-82.250	O.2	1	RES1	0.000	
8	 C38	1.313	53.212	-85.430	C.2	1	RES1	0.000	
9	 C39	0.535	52.653	-86.473	C.2	1	RES1	0.000	
10	 C40	-0.163	51.462	-86.267	C.2	1	RES1	0.000	
11	 C41	-0.127	50.762	-85.081	C.2	1	RES1	0.000	
12	 C42	0.670	51.343	-84.065	C.2	1	RES1	0.000	
13	 C43	1.352	52.493	-84.235	C.2	1	RES1	0.000	
14	 C44	2.065	52.817	-82.998	C.2	1	RES1	0.000	
15	 C45	2.224	51.656	-80.745	C.3	1	RES1	0.000	
16	 C46	3.704	51.256	-80.660	C.3	1	RES1	0.000	
17	 C47	4.148	51.179	-79.231	C.3	1	RES1	0.000	
18	 C48	3.270	50.220	-78.416	C.2	1	RES1	0.000	
19	 C49	1.371	50.657	-79.957	C.2	1	RES1	0.000	
20	 C50	0.906	50.865	-82.704	C.2	1	RES1	0.000	
@<TRIPOS>BOND
1 2 20 ar
2 4 14 2
3 5 18 2
4 6 19 2
5 7 20 2
6 1 8 1
7 8 9 ar
8 8 13 ar
9 9 10 ar
10 10 11 ar
11 11 12 ar
12 12 13 ar
13 12 20 ar
14 13 14 ar
15 2 14 ar
16 2 15 1
17 15 16 1
18 15 19 1
19 16 17 1
20 17 18 1
21 3 18 1
22 3 19 1
@<TRIPOS>SUBSTRUCTURE
1	RES1	1	GROUP	1 ****	RES
