# created with PyMOL 2.5.2
@<TRIPOS>MOLECULE
CRBN_6H0G_TargetProtein
20 22 1                 
SMALL
USER_CHARGES
@<TRIPOS>ATOM
1	  N4	1.969	54.465	-85.602	N.pl3	1	RES1	0.000	
2	  N5	1.705	51.813	-82.093	N.2	1	RES1	0.000	
3	  N6	1.997	50.065	-78.868	N.pl3	1	RES1	0.000	
4	  O9	2.766	53.784	-82.842	O.2	1	RES1	0.000	
5	 O10	3.704	49.660	-77.449	O.2	1	RES1	0.000	
6	 O11	0.190	50.469	-80.164	O.2	1	RES1	0.000	
7	 O12	0.435	49.810	-82.261	O.2	1	RES1	0.000	
8	 C40	1.335	53.213	-85.436	C.2	1	RES1	0.000	
9	 C41	0.545	52.653	-86.476	C.2	1	RES1	0.000	
10	 C42	-0.157	51.456	-86.293	C.2	1	RES1	0.000	
11	 C43	-0.069	50.756	-85.076	C.2	1	RES1	0.000	
12	 C44	0.661	51.319	-84.066	C.2	1	RES1	0.000	
13	 C45	1.340	52.514	-84.243	C.2	1	RES1	0.000	
14	 C46	2.043	52.813	-82.972	C.2	1	RES1	0.000	
15	 C47	2.210	51.659	-80.718	C.3	1	RES1	0.000	
16	 C48	3.701	51.249	-80.680	C.3	1	RES1	0.000	
17	 C49	4.167	51.167	-79.229	C.3	1	RES1	0.000	
18	 C50	3.300	50.207	-78.457	C.2	1	RES1	0.000	
19	 C51	1.375	50.673	-79.925	C.2	1	RES1	0.000	
20	 C52	0.907	50.850	-82.717	C.2	1	RES1	0.000	
@<TRIPOS>BOND
1 1 8 1
2 2 20 ar
3 5 18 2
4 6 19 2
5 7 20 2
6 8 9 ar
7 8 13 ar
8 9 10 ar
9 10 11 ar
10 11 12 ar
11 12 13 ar
12 12 20 ar
13 13 14 ar
14 2 14 ar
15 4 14 2
16 2 15 1
17 15 16 1
18 15 19 1
19 16 17 1
20 17 18 1
21 3 18 1
22 3 19 1
@<TRIPOS>SUBSTRUCTURE
1	RES1	1	GROUP	1 ****	RES
