# created with PyMOL 2.5.2
@<TRIPOS>MOLECULE
BRD4_6YQN_TargetProtein
24 27 1                 
SMALL
USER_CHARGES
@<TRIPOS>ATOM
1	 CL1	25.740	17.908	-7.005	Cl	1	RES1	0.000	
2	  S1	28.512	16.314	1.366	S.2	1	RES1	0.000	
3	  N5	30.572	15.755	-2.880	N.2	1	RES1	0.000	
4	  N6	30.792	16.820	0.005	N.2	1	RES1	0.000	
5	  N7	32.708	17.781	0.544	N.2	1	RES1	0.000	
6	  N8	32.924	16.958	-0.524	N.2	1	RES1	0.000	
7	 C30	32.827	14.958	-2.590	C.3	1	RES1	0.000	
8	 C31	31.555	15.328	-1.866	C.3	1	RES1	0.000	
9	 C32	29.326	16.017	-2.574	C.2	1	RES1	0.000	
10	 C33	28.417	16.486	-3.626	C.2	1	RES1	0.000	
11	 C34	28.707	16.113	-4.976	C.2	1	RES1	0.000	
12	 C35	27.852	16.558	-6.010	C.2	1	RES1	0.000	
13	 C36	26.771	17.363	-5.717	C.2	1	RES1	0.000	
14	 C37	26.494	17.736	-4.387	C.2	1	RES1	0.000	
15	 C38	27.344	17.306	-3.371	C.2	1	RES1	0.000	
16	 C39	28.788	15.871	-1.178	C.2	1	RES1	0.000	
17	 C40	29.465	16.371	-0.076	C.2	1	RES1	0.000	
18	 C41	27.234	15.481	0.532	C.2	1	RES1	0.000	
19	 C42	26.024	15.082	1.293	C.3	1	RES1	0.000	
20	 C43	27.524	15.298	-0.798	C.2	1	RES1	0.000	
21	 C44	26.617	14.576	-1.747	C.3	1	RES1	0.000	
22	 C45	31.432	17.681	0.858	C.2	1	RES1	0.000	
23	 C46	30.805	18.522	1.964	C.3	1	RES1	0.000	
24	 C47	31.772	16.399	-0.846	C.2	1	RES1	0.000	
@<TRIPOS>BOND
1 1 13 1
2 2 17 ar
3 2 18 ar
4 5 6 ar
5 7 8 1
6 3 8 1
7 8 24 1
8 3 9 2
9 9 10 1
10 9 16 1
11 10 11 ar
12 10 15 ar
13 11 12 ar
14 12 13 ar
15 13 14 ar
16 14 15 ar
17 16 17 ar
18 16 20 ar
19 4 17 1
20 18 19 1
21 18 20 ar
22 20 21 1
23 4 22 ar
24 5 22 ar
25 22 23 1
26 4 24 ar
27 6 24 ar
@<TRIPOS>SUBSTRUCTURE
1	RES1	1	GROUP	1 ****	RES
