# created with PyMOL 2.5.2
@<TRIPOS>MOLECULE
BRD4_6YQN_TargetProtein
24 27 1                 
SMALL
USER_CHARGES
@<TRIPOS>ATOM
1	 CL1	25.747	17.899	-7.002	Cl	1	RES1	0.000	
2	  S1	28.499	16.303	1.356	S.2	1	RES1	0.000	
3	  N5	30.576	15.774	-2.879	N.2	1	RES1	0.000	
4	  N6	30.779	16.825	0.020	N.2	1	RES1	0.000	
5	  N7	32.703	17.786	0.544	N.2	1	RES1	0.000	
6	  N8	32.923	16.951	-0.528	N.2	1	RES1	0.000	
7	 C25	32.828	14.950	-2.610	C.3	1	RES1	0.000	
8	 C26	31.556	15.305	-1.879	C.3	1	RES1	0.000	
9	 C27	29.338	16.007	-2.569	C.2	1	RES1	0.000	
10	 C28	28.405	16.491	-3.630	C.2	1	RES1	0.000	
11	 C29	28.703	16.138	-4.982	C.2	1	RES1	0.000	
12	 C30	27.871	16.551	-5.987	C.2	1	RES1	0.000	
13	 C31	26.776	17.367	-5.718	C.2	1	RES1	0.000	
14	 C32	26.488	17.737	-4.408	C.2	1	RES1	0.000	
15	 C33	27.312	17.290	-3.384	C.2	1	RES1	0.000	
16	 C34	28.816	15.913	-1.170	C.2	1	RES1	0.000	
17	 C35	29.456	16.374	-0.055	C.2	1	RES1	0.000	
18	 C36	27.238	15.484	0.530	C.2	1	RES1	0.000	
19	 C37	26.022	15.094	1.303	C.3	1	RES1	0.000	
20	 C38	27.525	15.295	-0.811	C.2	1	RES1	0.000	
21	 C39	26.613	14.566	-1.722	C.3	1	RES1	0.000	
22	 C40	31.428	17.691	0.884	C.2	1	RES1	0.000	
23	 C41	30.804	18.500	1.947	C.3	1	RES1	0.000	
24	 C42	31.796	16.390	-0.860	C.2	1	RES1	0.000	
@<TRIPOS>BOND
1 1 13 1
2 2 17 ar
3 2 18 ar
4 5 6 ar
5 7 8 1
6 3 8 1
7 8 24 1
8 3 9 2
9 9 10 1
10 9 16 1
11 10 11 ar
12 10 15 ar
13 11 12 ar
14 12 13 ar
15 13 14 ar
16 14 15 ar
17 16 17 ar
18 16 20 ar
19 4 17 1
20 18 19 1
21 18 20 ar
22 20 21 1
23 4 22 ar
24 5 22 ar
25 22 23 1
26 4 24 ar
27 6 24 ar
@<TRIPOS>SUBSTRUCTURE
1	RES1	1	GROUP	1 ****	RES
