# created with PyMOL 2.5.2
@<TRIPOS>MOLECULE
BRD4_6YQN_TargetProtein
24 27 1                 
SMALL
USER_CHARGES
@<TRIPOS>ATOM
1	 CL1	25.735	17.901	-6.990	Cl	1	RES1	0.000	
2	  S1	28.513	16.330	1.359	S.2	1	RES1	0.000	
3	  N5	30.583	15.765	-2.877	N.2	1	RES1	0.000	
4	  N6	30.780	16.819	0.013	N.2	1	RES1	0.000	
5	  N7	32.710	17.769	0.551	N.2	1	RES1	0.000	
6	  N8	32.917	16.961	-0.517	N.2	1	RES1	0.000	
7	 C25	32.840	14.955	-2.603	C.3	1	RES1	0.000	
8	 C26	31.558	15.333	-1.875	C.3	1	RES1	0.000	
9	 C27	29.334	16.028	-2.555	C.2	1	RES1	0.000	
10	 C28	28.414	16.477	-3.633	C.2	1	RES1	0.000	
11	 C29	28.688	16.096	-4.979	C.2	1	RES1	0.000	
12	 C30	27.850	16.531	-6.004	C.2	1	RES1	0.000	
13	 C31	26.747	17.369	-5.720	C.2	1	RES1	0.000	
14	 C32	26.518	17.756	-4.389	C.2	1	RES1	0.000	
15	 C33	27.338	17.325	-3.370	C.2	1	RES1	0.000	
16	 C34	28.815	15.890	-1.191	C.2	1	RES1	0.000	
17	 C35	29.450	16.376	-0.062	C.2	1	RES1	0.000	
18	 C36	27.236	15.489	0.523	C.2	1	RES1	0.000	
19	 C37	26.014	15.078	1.286	C.3	1	RES1	0.000	
20	 C38	27.544	15.315	-0.805	C.2	1	RES1	0.000	
21	 C39	26.619	14.568	-1.738	C.3	1	RES1	0.000	
22	 C40	31.420	17.685	0.868	C.2	1	RES1	0.000	
23	 C41	30.785	18.482	1.933	C.3	1	RES1	0.000	
24	 C42	31.795	16.382	-0.833	C.2	1	RES1	0.000	
@<TRIPOS>BOND
1 1 13 1
2 2 17 ar
3 2 18 ar
4 5 6 ar
5 7 8 1
6 3 8 1
7 8 24 1
8 3 9 2
9 9 10 1
10 9 16 1
11 10 11 ar
12 10 15 ar
13 11 12 ar
14 12 13 ar
15 13 14 ar
16 14 15 ar
17 16 17 ar
18 16 20 ar
19 4 17 1
20 18 19 1
21 18 20 ar
22 20 21 1
23 4 22 ar
24 5 22 ar
25 22 23 1
26 4 24 ar
27 6 24 ar
@<TRIPOS>SUBSTRUCTURE
1	RES1	1	GROUP	1 ****	RES
