# created with PyMOL 2.5.2
@<TRIPOS>MOLECULE
ALK_4MKC_TargetProtein
38 41 1                 
SMALL
USER_CHARGES
@<TRIPOS>ATOM
1	 CL1	-20.950	15.037	-10.394	Cl	1	RES1	0.000	
2	  C1	-20.263	7.212	-7.665	C.3	1	RES1	0.000	
3	  N1	-23.897	10.126	-9.182	N.pl3	1	RES1	0.000	
4	  O1	-15.837	13.787	-7.708	O.2	1	RES1	0.000	
5	  S1	-17.066	13.348	-8.378	S.O2	1	RES1	0.000	
6	  C2	-21.750	7.489	-7.669	C.2	1	RES1	0.000	
7	  N2	-23.658	12.109	-10.374	N.2	1	RES1	0.000	
8	  O2	-17.984	14.342	-8.913	O.2	1	RES1	0.000	
9	  C3	-22.208	8.565	-8.388	C.2	1	RES1	0.000	
10	  N3	-20.129	12.972	-8.316	N.pl3	1	RES1	0.000	
11	  O3	-25.859	8.408	-7.988	O.3	1	RES1	0.000	
12	  C4	-23.555	8.916	-8.482	C.2	1	RES1	0.000	
13	  N4	-22.022	11.553	-8.743	N.2	1	RES1	0.000	
14	  C5	-23.171	11.299	-9.410	C.2	1	RES1	0.000	
15	  N5	-21.082	4.283	-3.759	N.3	1	RES1	0.000	
16	  C6	-22.957	13.237	-10.645	C.2	1	RES1	0.000	
17	  C7	-21.775	13.578	-9.999	C.2	1	RES1	0.000	
18	  C8	-21.331	12.676	-9.002	C.2	1	RES1	0.000	
19	  C9	-19.408	12.268	-7.279	C.2	1	RES1	0.000	
20	 C10	-20.043	11.407	-6.366	C.2	1	RES1	0.000	
21	 C11	-19.364	10.746	-5.390	C.2	1	RES1	0.000	
22	 C12	-17.979	10.890	-5.263	C.2	1	RES1	0.000	
23	 C13	-17.292	11.688	-6.173	C.2	1	RES1	0.000	
24	 C14	-18.011	12.338	-7.175	C.2	1	RES1	0.000	
25	 C15	-16.626	12.223	-9.684	C.3	1	RES1	0.000	
26	 C16	-15.463	11.316	-9.294	C.3	1	RES1	0.000	
27	 C17	-16.300	12.989	-10.944	C.3	1	RES1	0.000	
28	 C18	-24.501	8.093	-7.842	C.2	1	RES1	0.000	
29	 C19	-26.870	7.482	-7.516	C.3	1	RES1	0.000	
30	 C20	-28.163	8.265	-7.336	C.3	1	RES1	0.000	
31	 C21	-26.438	6.869	-6.185	C.3	1	RES1	0.000	
32	 C22	-24.042	7.004	-7.053	C.2	1	RES1	0.000	
33	 C23	-22.706	6.672	-6.989	C.2	1	RES1	0.000	
34	 C24	-22.256	5.446	-6.145	C.3	1	RES1	0.000	
35	 C25	-23.031	5.364	-4.820	C.3	1	RES1	0.000	
36	 C26	-22.546	4.194	-3.993	C.3	1	RES1	0.000	
37	 C54	-20.342	4.270	-5.032	C.3	1	RES1	0.000	
38	 C55	-20.742	5.455	-5.903	C.3	1	RES1	0.000	
@<TRIPOS>BOND
1 1 17 1
2 2 6 1
3 3 12 1
4 3 14 1
5 4 5 2
6 5 8 2
7 5 24 1
8 5 25 1
9 6 9 ar
10 6 33 ar
11 7 14 ar
12 7 16 ar
13 9 12 ar
14 10 18 1
15 10 19 1
16 13 14 ar
17 13 18 ar
18 15 37 1
19 16 17 ar
20 17 18 ar
21 19 20 ar
22 20 21 ar
23 21 22 ar
24 22 23 ar
25 23 24 ar
26 19 24 ar
27 25 26 1
28 25 27 1
29 11 28 1
30 12 28 ar
31 28 32 ar
32 11 29 1
33 29 30 1
34 29 31 1
35 32 33 ar
36 33 34 1
37 34 35 1
38 34 38 1
39 35 36 1
40 15 36 1
41 37 38 1
@<TRIPOS>SUBSTRUCTURE
1	RES1	1	GROUP	1 ****	RES
