# created with PyMOL 2.5.2
@<TRIPOS>MOLECULE
ALK_4MKC_TargetProtein
38 41 1                 
SMALL
USER_CHARGES
@<TRIPOS>ATOM
1	 CL1	-21.020	15.044	-10.666	Cl	1	RES1	0.000	
2	  C1	-20.165	7.081	-7.504	C.3	1	RES1	0.000	
3	  N1	-23.774	10.125	-9.088	N.pl3	1	RES1	0.000	
4	  O1	-15.924	13.694	-7.613	O.2	1	RES1	0.000	
5	  S1	-17.155	13.321	-8.330	S.O2	1	RES1	0.000	
6	  C2	-21.612	7.421	-7.569	C.2	1	RES1	0.000	
7	  N2	-23.694	12.134	-10.379	N.2	1	RES1	0.000	
8	  O2	-18.005	14.361	-8.856	O.2	1	RES1	0.000	
9	  C3	-22.003	8.558	-8.256	C.2	1	RES1	0.000	
10	  N3	-20.200	12.996	-8.351	N.pl3	1	RES1	0.000	
11	  O3	-25.654	8.617	-7.896	O.3	1	RES1	0.000	
12	  C4	-23.354	8.965	-8.374	C.2	1	RES1	0.000	
13	  N4	-22.014	11.616	-8.813	N.2	1	RES1	0.000	
14	  C5	-23.157	11.324	-9.465	C.2	1	RES1	0.000	
15	  N5	-21.119	4.058	-3.777	N.3	1	RES1	0.000	
16	  C6	-23.040	13.266	-10.698	C.2	1	RES1	0.000	
17	  C7	-21.856	13.634	-10.090	C.2	1	RES1	0.000	
18	  C8	-21.372	12.764	-9.075	C.2	1	RES1	0.000	
19	  C9	-19.534	12.269	-7.342	C.2	1	RES1	0.000	
20	 C10	-20.211	11.434	-6.441	C.2	1	RES1	0.000	
21	 C11	-19.573	10.726	-5.450	C.2	1	RES1	0.000	
22	 C12	-18.193	10.792	-5.329	C.2	1	RES1	0.000	
23	 C13	-17.452	11.598	-6.209	C.2	1	RES1	0.000	
24	 C14	-18.123	12.302	-7.204	C.2	1	RES1	0.000	
25	 C15	-16.694	12.232	-9.707	C.3	1	RES1	0.000	
26	 C16	-15.543	11.308	-9.283	C.3	1	RES1	0.000	
27	 C17	-16.320	13.026	-10.960	C.3	1	RES1	0.000	
28	 C18	-24.327	8.185	-7.751	C.2	1	RES1	0.000	
29	 C19	-26.727	7.738	-7.521	C.3	1	RES1	0.000	
30	 C20	-27.954	8.600	-7.301	C.3	1	RES1	0.000	
31	 C21	-26.401	7.001	-6.225	C.3	1	RES1	0.000	
32	 C22	-23.939	7.012	-7.044	C.2	1	RES1	0.000	
33	 C23	-22.625	6.631	-6.932	C.2	1	RES1	0.000	
34	 C24	-22.230	5.368	-6.148	C.3	1	RES1	0.000	
35	 C25	-23.013	5.250	-4.812	C.3	1	RES1	0.000	
36	 C26	-22.568	4.021	-4.014	C.3	1	RES1	0.000	
37	 C56	-20.347	4.111	-5.041	C.3	1	RES1	0.000	
38	 C57	-20.720	5.335	-5.880	C.3	1	RES1	0.000	
@<TRIPOS>BOND
1 1 17 1
2 2 6 1
3 3 12 1
4 3 14 1
5 4 5 2
6 5 8 2
7 5 24 1
8 5 25 1
9 6 9 ar
10 6 33 ar
11 7 14 ar
12 7 16 ar
13 9 12 ar
14 10 18 1
15 10 19 1
16 13 14 ar
17 13 18 ar
18 15 37 1
19 16 17 ar
20 17 18 ar
21 19 20 ar
22 20 21 ar
23 21 22 ar
24 22 23 ar
25 23 24 ar
26 19 24 ar
27 25 26 1
28 25 27 1
29 11 28 1
30 12 28 ar
31 28 32 ar
32 11 29 1
33 29 30 1
34 29 31 1
35 32 33 ar
36 33 34 1
37 34 35 1
38 34 38 1
39 35 36 1
40 15 36 1
41 37 38 1
@<TRIPOS>SUBSTRUCTURE
1	RES1	1	GROUP	1 ****	RES
