# created with PyMOL 2.5.2
@<TRIPOS>MOLECULE
ALK_4MKC_TargetProtein
38 41 1                 
SMALL
USER_CHARGES
@<TRIPOS>ATOM
1	 CL1	-21.087	15.040	-10.671	Cl	1	RES1	0.000	
2	  C1	-20.014	7.090	-7.023	C.3	1	RES1	0.000	
3	  N1	-23.519	9.997	-9.051	N.pl3	1	RES1	0.000	
4	  O1	-18.059	14.872	-9.147	O.2	1	RES1	0.000	
5	  S1	-17.026	13.990	-8.595	S.O2	1	RES1	0.000	
6	  C2	-21.504	7.402	-7.203	C.2	1	RES1	0.000	
7	  N2	-23.489	11.874	-10.379	N.2	1	RES1	0.000	
8	  O2	-15.860	14.550	-7.972	O.2	1	RES1	0.000	
9	  C3	-21.831	8.501	-8.011	C.2	1	RES1	0.000	
10	  N3	-20.018	13.234	-8.486	N.pl3	1	RES1	0.000	
11	  O3	-25.498	8.459	-7.813	O.3	1	RES1	0.000	
12	  C4	-23.165	8.866	-8.224	C.2	1	RES1	0.000	
13	  N4	-21.771	11.610	-8.767	N.2	1	RES1	0.000	
14	  C5	-22.884	11.156	-9.410	C.2	1	RES1	0.000	
15	  N5	-22.846	2.835	-4.529	N.3	1	RES1	0.000	
16	  C6	-22.916	13.030	-10.726	C.2	1	RES1	0.000	
17	  C7	-21.780	13.530	-10.171	C.2	1	RES1	0.000	
18	  C8	-21.187	12.755	-9.141	C.2	1	RES1	0.000	
19	  C9	-19.228	12.677	-7.423	C.2	1	RES1	0.000	
20	 C10	-19.778	11.884	-6.422	C.2	1	RES1	0.000	
21	 C11	-19.010	11.348	-5.407	C.2	1	RES1	0.000	
22	 C12	-17.636	11.551	-5.381	C.2	1	RES1	0.000	
23	 C13	-17.060	12.344	-6.375	C.2	1	RES1	0.000	
24	 C14	-17.841	12.902	-7.351	C.2	1	RES1	0.000	
25	 C15	-16.487	12.871	-9.901	C.3	1	RES1	0.000	
26	 C16	-17.657	12.069	-10.442	C.3	1	RES1	0.000	
27	 C17	-15.365	11.926	-9.430	C.3	1	RES1	0.000	
28	 C18	-24.135	8.120	-7.581	C.2	1	RES1	0.000	
29	 C19	-26.462	7.458	-7.408	C.3	1	RES1	0.000	
30	 C20	-27.893	7.961	-7.201	C.3	1	RES1	0.000	
31	 C21	-25.981	6.615	-6.238	C.3	1	RES1	0.000	
32	 C22	-23.839	7.006	-6.806	C.2	1	RES1	0.000	
33	 C23	-22.494	6.634	-6.596	C.2	1	RES1	0.000	
34	 C24	-22.193	5.421	-5.712	C.3	1	RES1	0.000	
35	 C25	-22.142	4.118	-6.535	C.3	1	RES1	0.000	
36	 C26	-21.885	2.928	-5.624	C.3	1	RES1	0.000	
37	 C54	-22.871	4.011	-3.694	C.3	1	RES1	0.000	
38	 C55	-23.179	5.275	-4.538	C.3	1	RES1	0.000	
@<TRIPOS>BOND
1 1 17 1
2 2 6 1
3 3 12 1
4 3 14 1
5 4 5 2
6 5 8 2
7 5 24 1
8 5 25 1
9 6 9 ar
10 6 33 ar
11 7 14 ar
12 7 16 ar
13 9 12 ar
14 10 18 1
15 10 19 1
16 13 14 ar
17 13 18 ar
18 15 37 1
19 16 17 ar
20 17 18 ar
21 19 20 ar
22 20 21 ar
23 21 22 ar
24 22 23 ar
25 23 24 ar
26 19 24 ar
27 25 26 1
28 25 27 1
29 11 28 1
30 12 28 ar
31 28 32 ar
32 11 29 1
33 29 30 1
34 29 31 1
35 32 33 ar
36 33 34 1
37 34 35 1
38 34 38 1
39 35 36 1
40 15 36 1
41 37 38 1
@<TRIPOS>SUBSTRUCTURE
1	RES1	1	GROUP	1 ****	RES
