# created with PyMOL 2.5.2
@<TRIPOS>MOLECULE
GCN5_5MLJ_TargetProtein
23 25 1                 
SMALL
USER_CHARGES
@<TRIPOS>ATOM
1	  C1	-15.905	-9.532	15.937	C.3	1	RES1	0.000	
2	  N1	-15.673	-8.114	15.522	N.3	1	RES1	0.000	
3	  O1	-20.889	-4.830	10.119	O.2	1	RES1	0.000	
4	  C2	-16.440	-7.819	14.311	C.3	1	RES1	0.000	
5	  N2	-16.997	-6.043	12.643	N.pl3	1	RES1	0.000	
6	  C3	-16.269	-6.344	13.892	C.3	1	RES1	0.000	
7	  N3	-20.830	-4.320	12.362	N.2	1	RES1	0.000	
8	  C4	-18.257	-5.491	12.464	C.2	1	RES1	0.000	
9	  N4	-20.180	-4.350	13.577	N.2	1	RES1	0.000	
10	  C5	-18.935	-5.469	11.261	C.2	1	RES1	0.000	
11	  C6	-20.286	-4.857	11.170	C.2	1	RES1	0.000	
12	  C7	-22.128	-3.702	12.374	C.3	1	RES1	0.000	
13	  C8	-18.982	-4.908	13.616	C.2	1	RES1	0.000	
14	  C9	-14.783	-5.993	13.682	C.3	1	RES1	0.000	
15	 C10	-13.964	-6.402	14.933	C.3	1	RES1	0.000	
16	 C11	-12.503	-6.085	14.780	C.2	1	RES1	0.000	
17	 C12	-11.664	-6.884	13.966	C.2	1	RES1	0.000	
18	 C13	-10.314	-6.583	13.842	C.2	1	RES1	0.000	
19	 C14	-9.764	-5.508	14.496	C.2	1	RES1	0.000	
20	 C43	-10.573	-4.727	15.328	C.2	1	RES1	0.000	
21	 C44	-11.914	-5.013	15.454	C.2	1	RES1	0.000	
22	 C45	-14.222	-7.879	15.329	C.3	1	RES1	0.000	
23	 BR1	-18.202	-6.184	9.686	Br	1	RES1	0.000	
@<TRIPOS>BOND
1 1 2 1
2 2 4 1
3 2 22 1
4 3 11 2
5 4 6 1
6 5 6 1
7 5 8 1
8 6 14 1
9 7 9 ar
10 7 11 ar
11 7 12 1
12 8 10 ar
13 8 13 ar
14 9 13 ar
15 10 11 ar
16 14 15 1
17 15 16 1
18 15 22 1
19 16 17 ar
20 16 21 ar
21 17 18 ar
22 18 19 ar
23 19 20 ar
24 20 21 ar
25 10 23 1
@<TRIPOS>SUBSTRUCTURE
1	RES1	1	GROUP	1 ****	RES
