# created with PyMOL 2.5.2
@<TRIPOS>MOLECULE
ALK_4MKC_TargetProtein
38 41 1                 
SMALL
USER_CHARGES
@<TRIPOS>ATOM
1	 CL1	-20.795	15.034	-10.534	Cl	1	RES1	0.000	
2	  C1	-20.238	7.372	-7.857	C.3	1	RES1	0.000	
3	  N1	-23.921	10.259	-9.174	N.pl3	1	RES1	0.000	
4	  O1	-17.878	14.443	-8.688	O.2	1	RES1	0.000	
5	  S1	-17.012	13.401	-8.196	S.O2	1	RES1	0.000	
6	  C2	-21.724	7.622	-7.742	C.2	1	RES1	0.000	
7	  N2	-23.633	12.245	-10.510	N.2	1	RES1	0.000	
8	  O2	-15.821	13.736	-7.450	O.2	1	RES1	0.000	
9	  C3	-22.214	8.715	-8.451	C.2	1	RES1	0.000	
10	  N3	-20.103	12.955	-8.377	N.pl3	1	RES1	0.000	
11	  O3	-25.805	8.554	-7.623	O.3	1	RES1	0.000	
12	  C4	-23.574	9.084	-8.435	C.2	1	RES1	0.000	
13	  N4	-22.055	11.618	-8.839	N.2	1	RES1	0.000	
14	  C5	-23.179	11.392	-9.534	C.2	1	RES1	0.000	
15	  N5	-20.917	4.313	-3.817	N.3	1	RES1	0.000	
16	  C6	-22.893	13.326	-10.770	C.2	1	RES1	0.000	
17	  C7	-21.706	13.596	-10.111	C.2	1	RES1	0.000	
18	  C8	-21.332	12.731	-9.098	C.2	1	RES1	0.000	
19	  C9	-19.429	12.179	-7.400	C.2	1	RES1	0.000	
20	 C10	-20.119	11.252	-6.597	C.2	1	RES1	0.000	
21	 C11	-19.483	10.510	-5.615	C.2	1	RES1	0.000	
22	 C12	-18.083	10.640	-5.455	C.2	1	RES1	0.000	
23	 C13	-17.385	11.517	-6.223	C.2	1	RES1	0.000	
24	 C14	-18.040	12.292	-7.193	C.2	1	RES1	0.000	
25	 C15	-16.503	12.369	-9.600	C.3	1	RES1	0.000	
26	 C16	-17.712	11.719	-10.314	C.3	1	RES1	0.000	
27	 C17	-15.527	11.293	-9.134	C.3	1	RES1	0.000	
28	 C18	-24.445	8.304	-7.659	C.2	1	RES1	0.000	
29	 C19	-26.542	7.525	-6.956	C.3	1	RES1	0.000	
30	 C20	-26.696	6.293	-7.880	C.3	1	RES1	0.000	
31	 C21	-27.918	8.080	-6.609	C.3	1	RES1	0.000	
32	 C22	-23.940	7.240	-6.922	C.2	1	RES1	0.000	
33	 C23	-22.602	6.858	-6.915	C.2	1	RES1	0.000	
34	 C24	-22.206	5.689	-6.041	C.3	1	RES1	0.000	
35	 C25	-22.819	5.625	-4.653	C.3	1	RES1	0.000	
36	 C26	-22.384	4.375	-3.893	C.3	1	RES1	0.000	
37	 C53	-20.311	4.268	-5.159	C.3	1	RES1	0.000	
38	 C54	-20.671	5.495	-5.973	C.3	1	RES1	0.000	
@<TRIPOS>BOND
1 1 17 1
2 2 6 1
3 3 12 1
4 3 14 1
5 4 5 2
6 5 8 2
7 5 24 1
8 5 25 1
9 6 9 ar
10 6 33 ar
11 7 14 ar
12 7 16 ar
13 9 12 ar
14 10 18 1
15 10 19 1
16 13 14 ar
17 13 18 ar
18 15 37 1
19 16 17 ar
20 17 18 ar
21 19 20 ar
22 20 21 ar
23 21 22 ar
24 22 23 ar
25 23 24 ar
26 19 24 ar
27 25 26 1
28 25 27 1
29 11 28 1
30 12 28 ar
31 28 32 ar
32 11 29 1
33 29 30 1
34 29 31 1
35 32 33 ar
36 33 34 1
37 34 35 1
38 34 38 1
39 35 36 1
40 15 36 1
41 37 38 1
@<TRIPOS>SUBSTRUCTURE
1	RES1	1	GROUP	1 ****	RES
