# created with PyMOL 2.5.2
@<TRIPOS>MOLECULE
ALK_4MKC_TargetProtein
38 41 1                 
SMALL
USER_CHARGES
@<TRIPOS>ATOM
1	 CL1	-21.199	15.039	-10.712	Cl	1	RES1	0.000	
2	  C1	-19.918	7.050	-7.087	C.3	1	RES1	0.000	
3	  N1	-23.529	9.961	-8.938	N.pl3	1	RES1	0.000	
4	  O1	-18.039	14.848	-9.166	O.2	1	RES1	0.000	
5	  S1	-17.059	13.912	-8.599	S.O2	1	RES1	0.000	
6	  C2	-21.406	7.391	-7.190	C.2	1	RES1	0.000	
7	  N2	-23.554	11.799	-10.320	N.2	1	RES1	0.000	
8	  O2	-15.887	14.407	-7.907	O.2	1	RES1	0.000	
9	  C3	-21.786	8.491	-7.980	C.2	1	RES1	0.000	
10	  N3	-20.071	13.240	-8.499	N.pl3	1	RES1	0.000	
11	  O3	-25.418	8.534	-7.637	O.3	1	RES1	0.000	
12	  C4	-23.125	8.869	-8.129	C.2	1	RES1	0.000	
13	  N4	-21.803	11.618	-8.723	N.2	1	RES1	0.000	
14	  C5	-22.949	11.163	-9.320	C.2	1	RES1	0.000	
15	  N5	-22.619	2.845	-4.421	N.3	1	RES1	0.000	
16	  C6	-22.972	12.992	-10.703	C.2	1	RES1	0.000	
17	  C7	-21.847	13.511	-10.142	C.2	1	RES1	0.000	
18	  C8	-21.239	12.775	-9.107	C.2	1	RES1	0.000	
19	  C9	-19.308	12.659	-7.452	C.2	1	RES1	0.000	
20	 C10	-19.864	11.881	-6.456	C.2	1	RES1	0.000	
21	 C11	-19.123	11.310	-5.457	C.2	1	RES1	0.000	
22	 C12	-17.744	11.499	-5.405	C.2	1	RES1	0.000	
23	 C13	-17.143	12.272	-6.381	C.2	1	RES1	0.000	
24	 C14	-17.912	12.860	-7.405	C.2	1	RES1	0.000	
25	 C15	-16.496	12.783	-9.907	C.3	1	RES1	0.000	
26	 C16	-17.666	12.010	-10.454	C.3	1	RES1	0.000	
27	 C17	-15.389	11.820	-9.396	C.3	1	RES1	0.000	
28	 C18	-24.119	8.114	-7.463	C.2	1	RES1	0.000	
29	 C19	-26.507	7.747	-7.086	C.3	1	RES1	0.000	
30	 C20	-26.693	6.530	-8.034	C.3	1	RES1	0.000	
31	 C21	-27.781	8.571	-7.061	C.3	1	RES1	0.000	
32	 C22	-23.724	7.019	-6.681	C.2	1	RES1	0.000	
33	 C23	-22.387	6.621	-6.520	C.2	1	RES1	0.000	
34	 C24	-22.029	5.427	-5.635	C.3	1	RES1	0.000	
35	 C25	-21.998	4.097	-6.448	C.3	1	RES1	0.000	
36	 C26	-21.712	2.915	-5.536	C.3	1	RES1	0.000	
37	 C54	-22.628	4.061	-3.605	C.3	1	RES1	0.000	
38	 C55	-22.972	5.275	-4.433	C.3	1	RES1	0.000	
@<TRIPOS>BOND
1 1 17 1
2 2 6 1
3 3 12 1
4 3 14 1
5 4 5 2
6 5 8 2
7 5 24 1
8 5 25 1
9 6 9 ar
10 6 33 ar
11 7 14 ar
12 7 16 ar
13 9 12 ar
14 10 18 1
15 10 19 1
16 13 14 ar
17 13 18 ar
18 15 37 1
19 16 17 ar
20 17 18 ar
21 19 20 ar
22 20 21 ar
23 21 22 ar
24 22 23 ar
25 23 24 ar
26 19 24 ar
27 25 26 1
28 25 27 1
29 11 28 1
30 12 28 ar
31 28 32 ar
32 11 29 1
33 29 30 1
34 29 31 1
35 32 33 ar
36 33 34 1
37 34 35 1
38 34 38 1
39 35 36 1
40 15 36 1
41 37 38 1
@<TRIPOS>SUBSTRUCTURE
1	RES1	1	GROUP	1 ****	RES
