# created with PyMOL 2.5.2
@<TRIPOS>MOLECULE
ALK_4MKC_TargetProtein
38 41 1                 
SMALL
USER_CHARGES
@<TRIPOS>ATOM
1	 CL1	-21.085	15.008	-10.675	Cl	1	RES1	0.000	
2	  C1	-20.048	7.037	-7.126	C.3	1	RES1	0.000	
3	  N1	-23.574	9.972	-9.059	N.pl3	1	RES1	0.000	
4	  O1	-15.888	14.579	-7.841	O.2	1	RES1	0.000	
5	  S1	-17.034	14.029	-8.541	S.O2	1	RES1	0.000	
6	  C2	-21.497	7.364	-7.273	C.2	1	RES1	0.000	
7	  N2	-23.529	11.880	-10.353	N.2	1	RES1	0.000	
8	  O2	-18.059	14.904	-9.045	O.2	1	RES1	0.000	
9	  C3	-21.858	8.451	-8.090	C.2	1	RES1	0.000	
10	  N3	-20.019	13.175	-8.513	N.pl3	1	RES1	0.000	
11	  O3	-25.520	8.402	-7.870	O.3	1	RES1	0.000	
12	  C4	-23.197	8.827	-8.306	C.2	1	RES1	0.000	
13	  N4	-21.804	11.555	-8.800	N.2	1	RES1	0.000	
14	  C5	-22.930	11.178	-9.399	C.2	1	RES1	0.000	
15	  N5	-22.842	2.871	-4.448	N.3	1	RES1	0.000	
16	  C6	-22.933	13.038	-10.694	C.2	1	RES1	0.000	
17	  C7	-21.773	13.521	-10.144	C.2	1	RES1	0.000	
18	  C8	-21.196	12.710	-9.173	C.2	1	RES1	0.000	
19	  C9	-19.207	12.606	-7.472	C.2	1	RES1	0.000	
20	 C10	-19.763	11.794	-6.462	C.2	1	RES1	0.000	
21	 C11	-18.987	11.246	-5.469	C.2	1	RES1	0.000	
22	 C12	-17.606	11.481	-5.431	C.2	1	RES1	0.000	
23	 C13	-17.033	12.325	-6.365	C.2	1	RES1	0.000	
24	 C14	-17.819	12.903	-7.389	C.2	1	RES1	0.000	
25	 C15	-16.408	13.000	-9.879	C.3	1	RES1	0.000	
26	 C16	-17.520	12.184	-10.496	C.3	1	RES1	0.000	
27	 C17	-15.272	12.077	-9.390	C.3	1	RES1	0.000	
28	 C18	-24.187	8.049	-7.694	C.2	1	RES1	0.000	
29	 C19	-26.490	7.468	-7.334	C.3	1	RES1	0.000	
30	 C20	-27.870	8.110	-7.115	C.3	1	RES1	0.000	
31	 C21	-26.038	6.637	-6.132	C.3	1	RES1	0.000	
32	 C22	-23.827	6.984	-6.844	C.2	1	RES1	0.000	
33	 C23	-22.510	6.622	-6.640	C.2	1	RES1	0.000	
34	 C24	-22.210	5.436	-5.710	C.3	1	RES1	0.000	
35	 C25	-22.140	4.087	-6.474	C.3	1	RES1	0.000	
36	 C26	-21.876	2.931	-5.534	C.3	1	RES1	0.000	
37	 C57	-22.869	4.137	-3.668	C.3	1	RES1	0.000	
38	 C58	-23.195	5.340	-4.547	C.3	1	RES1	0.000	
@<TRIPOS>BOND
1 1 17 1
2 2 6 1
3 3 12 1
4 3 14 1
5 4 5 2
6 5 8 2
7 5 24 1
8 5 25 1
9 6 9 ar
10 6 33 ar
11 7 14 ar
12 7 16 ar
13 9 12 ar
14 10 18 1
15 10 19 1
16 13 14 ar
17 13 18 ar
18 15 37 1
19 16 17 ar
20 17 18 ar
21 19 20 ar
22 20 21 ar
23 21 22 ar
24 22 23 ar
25 23 24 ar
26 19 24 ar
27 25 26 1
28 25 27 1
29 11 28 1
30 12 28 ar
31 28 32 ar
32 11 29 1
33 29 30 1
34 29 31 1
35 32 33 ar
36 33 34 1
37 34 35 1
38 34 38 1
39 35 36 1
40 15 36 1
41 37 38 1
@<TRIPOS>SUBSTRUCTURE
1	RES1	1	GROUP	1 ****	RES
