# created with PyMOL 2.5.2
@<TRIPOS>MOLECULE
EGFR_4I24_TargetProtein
30 32 1                 
SMALL
USER_CHARGES
@<TRIPOS>ATOM
1	 CL1	-10.242	46.735	0.455	Cl	1	RES1	0.000	
2	  N4	-12.124	43.998	-6.101	N.2	1	RES1	0.000	
3	  N5	-10.829	44.089	-4.094	N.2	1	RES1	0.000	
4	  N6	-11.067	42.458	-2.354	N.pl3	1	RES1	0.000	
5	  N7	-14.894	39.465	-4.383	N.pl3	1	RES1	0.000	
6	  O7	-15.459	40.566	-6.760	O.3	1	RES1	0.000	
7	  N8	-15.731	33.786	-2.172	N.3	1	RES1	0.000	
8	  O8	-13.201	37.924	-3.848	O.2	1	RES1	0.000	
9	 C29	-15.795	41.166	-8.024	C.3	1	RES1	0.000	
10	 C30	-14.454	41.200	-6.013	C.2	1	RES1	0.000	
11	 C31	-13.741	42.341	-6.433	C.2	1	RES1	0.000	
12	 C32	-12.753	42.933	-5.640	C.2	1	RES1	0.000	
13	 C33	-11.191	44.508	-5.287	C.2	1	RES1	0.000	
14	 C34	-11.429	42.957	-3.620	C.2	1	RES1	0.000	
15	 C35	-10.465	43.078	-1.225	C.2	1	RES1	0.000	
16	 C36	-9.721	42.326	-0.332	C.2	1	RES1	0.000	
17	 C37	-9.140	42.902	0.788	C.2	1	RES1	0.000	
18	 C38	-9.289	44.248	1.040	C.2	1	RES1	0.000	
19	 C39	-10.058	45.021	0.148	C.2	1	RES1	0.000	
20	 C40	-10.625	44.471	-0.969	C.2	1	RES1	0.000	
21	 C41	-12.450	42.334	-4.408	C.2	1	RES1	0.000	
22	 C42	-13.189	41.182	-3.947	C.2	1	RES1	0.000	
23	 C43	-14.147	40.604	-4.756	C.2	1	RES1	0.000	
24	 C44	-14.402	38.240	-3.965	C.2	1	RES1	0.000	
25	 C45	-15.470	37.258	-3.631	C.3	1	RES1	0.000	
26	 C46	-15.197	36.030	-3.257	C.3	1	RES1	0.000	
27	 C47	-16.238	35.005	-2.899	C.3	1	RES1	0.000	
28	 C48	-14.776	33.009	-2.977	C.3	1	RES1	0.000	
29	 C49	-15.236	34.106	-0.828	C.3	1	RES1	0.000	
30	  F1	-8.735	44.785	2.116	 F	1	RES1	0.000	
@<TRIPOS>BOND
1 1 19 1
2 6 9 1
3 6 10 1
4 10 11 ar
5 10 23 ar
6 11 12 ar
7 2 12 ar
8 12 21 ar
9 2 13 ar
10 3 13 ar
11 3 14 ar
12 4 14 1
13 14 21 ar
14 4 15 1
15 15 16 ar
16 15 20 ar
17 16 17 ar
18 17 18 ar
19 18 19 ar
20 19 20 ar
21 21 22 ar
22 22 23 ar
23 5 23 1
24 5 24 1
25 8 24 2
26 24 25 1
27 25 26 1
28 26 27 1
29 7 27 1
30 7 28 1
31 7 29 1
32 18 30 1
@<TRIPOS>SUBSTRUCTURE
1	RES1	1	GROUP	1 ****	RES
