# created with PyMOL 2.5.2
@<TRIPOS>MOLECULE
BRD4_6YQN_TargetProtein
24 27 1                 
SMALL
USER_CHARGES
@<TRIPOS>ATOM
1	 CL1	25.738	17.906	-7.002	Cl	1	RES1	0.000	
2	  S3	28.499	16.318	1.372	S.2	1	RES1	0.000	
3	  N6	30.561	15.783	-2.879	N.2	1	RES1	0.000	
4	  N7	30.782	16.813	0.007	N.2	1	RES1	0.000	
5	  N8	32.721	17.777	0.563	N.2	1	RES1	0.000	
6	  N9	32.923	16.972	-0.533	N.2	1	RES1	0.000	
7	 C31	32.831	14.942	-2.603	C.3	1	RES1	0.000	
8	 C32	31.551	15.307	-1.855	C.3	1	RES1	0.000	
9	 C33	29.340	16.007	-2.547	C.2	1	RES1	0.000	
10	 C34	28.427	16.501	-3.661	C.2	1	RES1	0.000	
11	 C35	28.695	16.140	-4.979	C.2	1	RES1	0.000	
12	 C36	27.885	16.568	-6.011	C.2	1	RES1	0.000	
13	 C37	26.778	17.350	-5.711	C.2	1	RES1	0.000	
14	 C38	26.467	17.710	-4.406	C.2	1	RES1	0.000	
15	 C39	27.287	17.299	-3.374	C.2	1	RES1	0.000	
16	 C40	28.796	15.889	-1.195	C.2	1	RES1	0.000	
17	 C41	29.467	16.373	-0.058	C.2	1	RES1	0.000	
18	 C42	27.255	15.497	0.530	C.2	1	RES1	0.000	
19	 C43	26.026	15.091	1.299	C.3	1	RES1	0.000	
20	 C44	27.525	15.293	-0.802	C.2	1	RES1	0.000	
21	 C45	26.620	14.578	-1.741	C.3	1	RES1	0.000	
22	 C46	31.428	17.678	0.881	C.2	1	RES1	0.000	
23	 C47	30.814	18.503	1.942	C.3	1	RES1	0.000	
24	 C48	31.787	16.388	-0.846	C.2	1	RES1	0.000	
@<TRIPOS>BOND
1 1 13 1
2 2 17 ar
3 2 18 ar
4 5 6 ar
5 7 8 1
6 3 8 1
7 8 24 1
8 3 9 2
9 9 10 1
10 9 16 1
11 10 11 ar
12 10 15 ar
13 11 12 ar
14 12 13 ar
15 13 14 ar
16 14 15 ar
17 16 17 ar
18 16 20 ar
19 4 17 1
20 18 19 1
21 18 20 ar
22 20 21 1
23 4 22 ar
24 5 22 ar
25 22 23 1
26 4 24 ar
27 6 24 ar
@<TRIPOS>SUBSTRUCTURE
1	RES1	1	GROUP	1 ****	RES
