# created with PyMOL 2.5.2
@<TRIPOS>MOLECULE
BRD4_6YQN_TargetProtein
24 27 1                 
SMALL
USER_CHARGES
@<TRIPOS>ATOM
1	 CL1	25.743	17.898	-7.000	Cl	1	RES1	0.000	
2	  S3	28.493	16.303	1.347	S.2	1	RES1	0.000	
3	  N6	30.555	15.773	-2.874	N.2	1	RES1	0.000	
4	  N7	30.790	16.815	0.008	N.2	1	RES1	0.000	
5	  N8	32.710	17.785	0.548	N.2	1	RES1	0.000	
6	  N9	32.926	16.961	-0.526	N.2	1	RES1	0.000	
7	 C31	32.825	14.956	-2.593	C.3	1	RES1	0.000	
8	 C32	31.554	15.316	-1.876	C.3	1	RES1	0.000	
9	 C33	29.321	16.004	-2.546	C.2	1	RES1	0.000	
10	 C34	28.432	16.482	-3.619	C.2	1	RES1	0.000	
11	 C35	28.689	16.138	-4.982	C.2	1	RES1	0.000	
12	 C36	27.866	16.551	-6.001	C.2	1	RES1	0.000	
13	 C37	26.759	17.368	-5.718	C.2	1	RES1	0.000	
14	 C38	26.500	17.741	-4.402	C.2	1	RES1	0.000	
15	 C39	27.318	17.316	-3.385	C.2	1	RES1	0.000	
16	 C40	28.794	15.884	-1.189	C.2	1	RES1	0.000	
17	 C41	29.478	16.362	-0.049	C.2	1	RES1	0.000	
18	 C42	27.250	15.511	0.530	C.2	1	RES1	0.000	
19	 C43	26.013	15.101	1.298	C.3	1	RES1	0.000	
20	 C44	27.541	15.280	-0.814	C.2	1	RES1	0.000	
21	 C45	26.627	14.553	-1.735	C.3	1	RES1	0.000	
22	 C46	31.427	17.698	0.854	C.2	1	RES1	0.000	
23	 C47	30.803	18.494	1.953	C.3	1	RES1	0.000	
24	 C48	31.790	16.392	-0.837	C.2	1	RES1	0.000	
@<TRIPOS>BOND
1 1 13 1
2 2 17 ar
3 2 18 ar
4 5 6 ar
5 7 8 1
6 3 8 1
7 8 24 1
8 3 9 2
9 9 10 1
10 9 16 1
11 10 11 ar
12 10 15 ar
13 11 12 ar
14 12 13 ar
15 13 14 ar
16 14 15 ar
17 16 17 ar
18 16 20 ar
19 4 17 1
20 18 19 1
21 18 20 ar
22 20 21 1
23 4 22 ar
24 5 22 ar
25 22 23 1
26 4 24 ar
27 6 24 ar
@<TRIPOS>SUBSTRUCTURE
1	RES1	1	GROUP	1 ****	RES
