# created with PyMOL 2.5.2
@<TRIPOS>MOLECULE
BRD4_6YQN_TargetProtein
24 27 1                 
SMALL
USER_CHARGES
@<TRIPOS>ATOM
1	 CL1	25.738	17.901	-6.986	Cl	1	RES1	0.000	
2	  S3	28.500	16.305	1.348	S.2	1	RES1	0.000	
3	  N6	30.591	15.793	-2.874	N.2	1	RES1	0.000	
4	  N7	30.785	16.820	0.004	N.2	1	RES1	0.000	
5	  N8	32.712	17.768	0.539	N.2	1	RES1	0.000	
6	  N9	32.925	16.958	-0.535	N.2	1	RES1	0.000	
7	 C29	32.852	14.963	-2.589	C.3	1	RES1	0.000	
8	 C30	31.549	15.319	-1.834	C.3	1	RES1	0.000	
9	 C31	29.321	16.025	-2.562	C.2	1	RES1	0.000	
10	 C32	28.411	16.482	-3.675	C.2	1	RES1	0.000	
11	 C33	28.683	16.112	-4.989	C.2	1	RES1	0.000	
12	 C34	27.870	16.553	-5.985	C.2	1	RES1	0.000	
13	 C35	26.768	17.349	-5.718	C.2	1	RES1	0.000	
14	 C36	26.497	17.739	-4.377	C.2	1	RES1	0.000	
15	 C37	27.328	17.310	-3.353	C.2	1	RES1	0.000	
16	 C38	28.801	15.887	-1.197	C.2	1	RES1	0.000	
17	 C39	29.474	16.375	-0.050	C.2	1	RES1	0.000	
18	 C40	27.243	15.496	0.537	C.2	1	RES1	0.000	
19	 C41	26.021	15.085	1.286	C.3	1	RES1	0.000	
20	 C42	27.516	15.312	-0.812	C.2	1	RES1	0.000	
21	 C43	26.620	14.570	-1.748	C.3	1	RES1	0.000	
22	 C44	31.411	17.680	0.857	C.2	1	RES1	0.000	
23	 C45	30.809	18.487	1.936	C.3	1	RES1	0.000	
24	 C46	31.785	16.396	-0.834	C.2	1	RES1	0.000	
@<TRIPOS>BOND
1 1 13 1
2 2 17 ar
3 2 18 ar
4 5 6 ar
5 7 8 1
6 3 8 1
7 8 24 1
8 3 9 2
9 9 10 1
10 9 16 1
11 10 11 ar
12 10 15 ar
13 11 12 ar
14 12 13 ar
15 13 14 ar
16 14 15 ar
17 16 17 ar
18 16 20 ar
19 4 17 1
20 18 19 1
21 18 20 ar
22 20 21 1
23 4 22 ar
24 5 22 ar
25 22 23 1
26 4 24 ar
27 6 24 ar
@<TRIPOS>SUBSTRUCTURE
1	RES1	1	GROUP	1 ****	RES
