# created with PyMOL 2.5.2
@<TRIPOS>MOLECULE
BRD4_6YQN_TargetProtein
24 27 1                 
SMALL
USER_CHARGES
@<TRIPOS>ATOM
1	 CL1	25.733	17.911	-6.975	Cl	1	RES1	0.000	
2	  S3	28.495	16.307	1.365	S.2	1	RES1	0.000	
3	  N6	30.581	15.759	-2.868	N.2	1	RES1	0.000	
4	  N7	30.787	16.835	0.015	N.2	1	RES1	0.000	
5	  N8	32.713	17.790	0.552	N.2	1	RES1	0.000	
6	  N9	32.931	16.972	-0.532	N.2	1	RES1	0.000	
7	 C29	32.830	14.947	-2.595	C.3	1	RES1	0.000	
8	 C30	31.565	15.311	-1.865	C.3	1	RES1	0.000	
9	 C31	29.341	16.021	-2.568	C.2	1	RES1	0.000	
10	 C32	28.431	16.470	-3.645	C.2	1	RES1	0.000	
11	 C33	28.690	16.100	-4.971	C.2	1	RES1	0.000	
12	 C34	27.848	16.546	-6.010	C.2	1	RES1	0.000	
13	 C35	26.747	17.377	-5.721	C.2	1	RES1	0.000	
14	 C36	26.511	17.751	-4.401	C.2	1	RES1	0.000	
15	 C37	27.330	17.312	-3.369	C.2	1	RES1	0.000	
16	 C38	28.802	15.879	-1.192	C.2	1	RES1	0.000	
17	 C39	29.462	16.358	-0.072	C.2	1	RES1	0.000	
18	 C40	27.240	15.501	0.522	C.2	1	RES1	0.000	
19	 C41	26.030	15.094	1.279	C.3	1	RES1	0.000	
20	 C42	27.532	15.303	-0.804	C.2	1	RES1	0.000	
21	 C43	26.622	14.564	-1.742	C.3	1	RES1	0.000	
22	 C44	31.419	17.704	0.880	C.2	1	RES1	0.000	
23	 C45	30.795	18.494	1.953	C.3	1	RES1	0.000	
24	 C46	31.770	16.377	-0.846	C.2	1	RES1	0.000	
@<TRIPOS>BOND
1 1 13 1
2 2 17 ar
3 2 18 ar
4 5 6 ar
5 7 8 1
6 3 8 1
7 8 24 1
8 3 9 2
9 9 10 1
10 9 16 1
11 10 11 ar
12 10 15 ar
13 11 12 ar
14 12 13 ar
15 13 14 ar
16 14 15 ar
17 16 17 ar
18 16 20 ar
19 4 17 1
20 18 19 1
21 18 20 ar
22 20 21 1
23 4 22 ar
24 5 22 ar
25 22 23 1
26 4 24 ar
27 6 24 ar
@<TRIPOS>SUBSTRUCTURE
1	RES1	1	GROUP	1 ****	RES
