# created with PyMOL 2.5.2
@<TRIPOS>MOLECULE
BRD4_6YQN_TargetProtein
24 27 1                 
SMALL
USER_CHARGES
@<TRIPOS>ATOM
1	 CL1	25.747	17.911	-7.021	Cl	1	RES1	0.000	
2	  S3	28.507	16.303	1.360	S.2	1	RES1	0.000	
3	  N6	30.599	15.769	-2.868	N.2	1	RES1	0.000	
4	  N7	30.776	16.804	0.003	N.2	1	RES1	0.000	
5	  N8	32.687	17.769	0.551	N.2	1	RES1	0.000	
6	  N9	32.934	16.952	-0.525	N.2	1	RES1	0.000	
7	 C31	32.833	14.960	-2.607	C.3	1	RES1	0.000	
8	 C32	31.563	15.328	-1.859	C.3	1	RES1	0.000	
9	 C33	29.311	16.017	-2.552	C.2	1	RES1	0.000	
10	 C34	28.421	16.491	-3.648	C.2	1	RES1	0.000	
11	 C35	28.695	16.122	-4.979	C.2	1	RES1	0.000	
12	 C36	27.871	16.559	-5.996	C.2	1	RES1	0.000	
13	 C37	26.753	17.339	-5.695	C.2	1	RES1	0.000	
14	 C38	26.495	17.739	-4.395	C.2	1	RES1	0.000	
15	 C39	27.313	17.287	-3.356	C.2	1	RES1	0.000	
16	 C40	28.798	15.904	-1.204	C.2	1	RES1	0.000	
17	 C41	29.464	16.366	-0.063	C.2	1	RES1	0.000	
18	 C42	27.253	15.504	0.534	C.2	1	RES1	0.000	
19	 C43	26.025	15.100	1.286	C.3	1	RES1	0.000	
20	 C44	27.519	15.296	-0.804	C.2	1	RES1	0.000	
21	 C45	26.615	14.572	-1.740	C.3	1	RES1	0.000	
22	 C46	31.428	17.701	0.861	C.2	1	RES1	0.000	
23	 C47	30.816	18.496	1.958	C.3	1	RES1	0.000	
24	 C48	31.781	16.393	-0.850	C.2	1	RES1	0.000	
@<TRIPOS>BOND
1 1 13 1
2 2 17 ar
3 2 18 ar
4 5 6 ar
5 7 8 1
6 3 8 1
7 8 24 1
8 3 9 2
9 9 10 1
10 9 16 1
11 10 11 ar
12 10 15 ar
13 11 12 ar
14 12 13 ar
15 13 14 ar
16 14 15 ar
17 16 17 ar
18 16 20 ar
19 4 17 1
20 18 19 1
21 18 20 ar
22 20 21 1
23 4 22 ar
24 5 22 ar
25 22 23 1
26 4 24 ar
27 6 24 ar
@<TRIPOS>SUBSTRUCTURE
1	RES1	1	GROUP	1 ****	RES
