# created with PyMOL 2.5.2
@<TRIPOS>MOLECULE
BRD4_6YQN_TargetProtein
24 27 1                 
SMALL
USER_CHARGES
@<TRIPOS>ATOM
1	 CL1	25.714	17.911	-6.989	Cl	1	RES1	0.000	
2	  S3	28.514	16.320	1.363	S.2	1	RES1	0.000	
3	  N6	30.594	15.775	-2.859	N.2	1	RES1	0.000	
4	  N7	30.794	16.830	-0.002	N.2	1	RES1	0.000	
5	  N8	32.692	17.781	0.545	N.2	1	RES1	0.000	
6	  N9	32.917	16.949	-0.530	N.2	1	RES1	0.000	
7	 C31	32.825	14.959	-2.595	C.3	1	RES1	0.000	
8	 C32	31.544	15.308	-1.865	C.3	1	RES1	0.000	
9	 C33	29.356	16.005	-2.557	C.2	1	RES1	0.000	
10	 C34	28.432	16.477	-3.650	C.2	1	RES1	0.000	
11	 C35	28.680	16.123	-4.978	C.2	1	RES1	0.000	
12	 C36	27.892	16.561	-6.005	C.2	1	RES1	0.000	
13	 C37	26.780	17.354	-5.711	C.2	1	RES1	0.000	
14	 C38	26.477	17.726	-4.385	C.2	1	RES1	0.000	
15	 C39	27.322	17.305	-3.378	C.2	1	RES1	0.000	
16	 C40	28.797	15.906	-1.196	C.2	1	RES1	0.000	
17	 C41	29.462	16.369	-0.052	C.2	1	RES1	0.000	
18	 C42	27.252	15.487	0.524	C.2	1	RES1	0.000	
19	 C43	26.021	15.092	1.288	C.3	1	RES1	0.000	
20	 C44	27.527	15.316	-0.820	C.2	1	RES1	0.000	
21	 C45	26.611	14.566	-1.733	C.3	1	RES1	0.000	
22	 C46	31.436	17.682	0.874	C.2	1	RES1	0.000	
23	 C47	30.798	18.493	1.939	C.3	1	RES1	0.000	
24	 C48	31.766	16.387	-0.839	C.2	1	RES1	0.000	
@<TRIPOS>BOND
1 1 13 1
2 2 17 ar
3 2 18 ar
4 5 6 ar
5 7 8 1
6 3 8 1
7 8 24 1
8 3 9 2
9 9 10 1
10 9 16 1
11 10 11 ar
12 10 15 ar
13 11 12 ar
14 12 13 ar
15 13 14 ar
16 14 15 ar
17 16 17 ar
18 16 20 ar
19 4 17 1
20 18 19 1
21 18 20 ar
22 20 21 1
23 4 22 ar
24 5 22 ar
25 22 23 1
26 4 24 ar
27 6 24 ar
@<TRIPOS>SUBSTRUCTURE
1	RES1	1	GROUP	1 ****	RES
