# created with PyMOL 2.5.2
@<TRIPOS>MOLECULE
CRBN_6H0G_TargetProtein
20 22 1                 
SMALL
USER_CHARGES
@<TRIPOS>ATOM
1	  N3	1.971	54.445	-85.598	N.pl3	1	RES1	0.000	
2	  N4	1.736	51.800	-82.099	N.2	1	RES1	0.000	
3	  N5	1.990	50.045	-78.888	N.pl3	1	RES1	0.000	
4	  O5	2.806	53.766	-82.853	O.2	1	RES1	0.000	
5	  O6	3.683	49.676	-77.423	O.2	1	RES1	0.000	
6	  O7	0.219	50.416	-80.210	O.2	1	RES1	0.000	
7	  O8	0.430	49.869	-82.234	O.2	1	RES1	0.000	
8	 C17	1.352	53.206	-85.458	C.2	1	RES1	0.000	
9	 C18	0.519	52.649	-86.466	C.2	1	RES1	0.000	
10	 C19	-0.183	51.454	-86.298	C.2	1	RES1	0.000	
11	 C20	-0.118	50.786	-85.069	C.2	1	RES1	0.000	
12	 C21	0.665	51.319	-84.056	C.2	1	RES1	0.000	
13	 C22	1.340	52.521	-84.231	C.2	1	RES1	0.000	
14	 C23	2.080	52.796	-82.976	C.2	1	RES1	0.000	
15	 C24	2.229	51.664	-80.735	C.3	1	RES1	0.000	
16	 C25	3.711	51.262	-80.653	C.3	1	RES1	0.000	
17	 C26	4.146	51.195	-79.194	C.3	1	RES1	0.000	
18	 C27	3.284	50.223	-78.428	C.2	1	RES1	0.000	
19	 C28	1.386	50.644	-79.996	C.2	1	RES1	0.000	
20	 C29	0.878	50.858	-82.702	C.2	1	RES1	0.000	
@<TRIPOS>BOND
1 1 8 1
2 8 9 ar
3 8 13 ar
4 9 10 ar
5 10 11 ar
6 11 12 ar
7 12 13 ar
8 12 20 ar
9 13 14 ar
10 2 14 ar
11 4 14 2
12 2 15 1
13 15 16 1
14 15 19 1
15 16 17 1
16 17 18 1
17 3 18 1
18 5 18 2
19 3 19 1
20 6 19 2
21 2 20 ar
22 7 20 2
@<TRIPOS>SUBSTRUCTURE
1	RES1	1	GROUP	1 ****	RES
