# created with PyMOL 2.5.2
@<TRIPOS>MOLECULE
BRD4_6YQN_TargetProtein
24 27 1                 
SMALL
USER_CHARGES
@<TRIPOS>ATOM
1	 CL1	25.760	17.917	-6.976	Cl	1	RES1	0.000	
2	  S3	28.512	16.310	1.376	S.2	1	RES1	0.000	
3	  N6	30.570	15.765	-2.857	N.2	1	RES1	0.000	
4	  N7	30.782	16.806	0.008	N.2	1	RES1	0.000	
5	  N8	32.693	17.780	0.535	N.2	1	RES1	0.000	
6	  N9	32.937	16.968	-0.525	N.2	1	RES1	0.000	
7	 C31	32.844	14.941	-2.615	C.3	1	RES1	0.000	
8	 C32	31.554	15.328	-1.864	C.3	1	RES1	0.000	
9	 C33	29.317	16.009	-2.555	C.2	1	RES1	0.000	
10	 C34	28.399	16.497	-3.652	C.2	1	RES1	0.000	
11	 C35	28.709	16.116	-4.968	C.2	1	RES1	0.000	
12	 C36	27.878	16.540	-6.003	C.2	1	RES1	0.000	
13	 C37	26.738	17.367	-5.730	C.2	1	RES1	0.000	
14	 C38	26.495	17.727	-4.413	C.2	1	RES1	0.000	
15	 C39	27.313	17.318	-3.368	C.2	1	RES1	0.000	
16	 C40	28.791	15.886	-1.189	C.2	1	RES1	0.000	
17	 C41	29.462	16.360	-0.060	C.2	1	RES1	0.000	
18	 C42	27.253	15.512	0.524	C.2	1	RES1	0.000	
19	 C43	26.030	15.088	1.294	C.3	1	RES1	0.000	
20	 C44	27.520	15.286	-0.814	C.2	1	RES1	0.000	
21	 C45	26.621	14.568	-1.746	C.3	1	RES1	0.000	
22	 C46	31.439	17.695	0.876	C.2	1	RES1	0.000	
23	 C47	30.795	18.507	1.946	C.3	1	RES1	0.000	
24	 C48	31.789	16.390	-0.834	C.2	1	RES1	0.000	
@<TRIPOS>BOND
1 1 13 1
2 2 17 ar
3 2 18 ar
4 5 6 ar
5 7 8 1
6 3 8 1
7 8 24 1
8 3 9 2
9 9 10 1
10 9 16 1
11 10 11 ar
12 10 15 ar
13 11 12 ar
14 12 13 ar
15 13 14 ar
16 14 15 ar
17 16 17 ar
18 16 20 ar
19 4 17 1
20 18 19 1
21 18 20 ar
22 20 21 1
23 4 22 ar
24 5 22 ar
25 22 23 1
26 4 24 ar
27 6 24 ar
@<TRIPOS>SUBSTRUCTURE
1	RES1	1	GROUP	1 ****	RES
