# created with PyMOL 2.5.2
@<TRIPOS>MOLECULE
BRD4_6YQN_TargetProtein
24 27 1                 
SMALL
USER_CHARGES
@<TRIPOS>ATOM
1	 CL1	25.741	17.916	-6.980	Cl	1	RES1	0.000	
2	  S1	28.492	16.310	1.359	S.2	1	RES1	0.000	
3	  N5	30.576	15.755	-2.864	N.2	1	RES1	0.000	
4	  N6	30.778	16.806	0.008	N.2	1	RES1	0.000	
5	  N7	32.694	17.779	0.533	N.2	1	RES1	0.000	
6	  N8	32.916	16.968	-0.532	N.2	1	RES1	0.000	
7	 C25	32.841	14.939	-2.613	C.3	1	RES1	0.000	
8	 C26	31.564	15.312	-1.857	C.3	1	RES1	0.000	
9	 C27	29.343	16.015	-2.574	C.2	1	RES1	0.000	
10	 C28	28.409	16.477	-3.665	C.2	1	RES1	0.000	
11	 C29	28.696	16.099	-4.962	C.2	1	RES1	0.000	
12	 C30	27.863	16.544	-6.011	C.2	1	RES1	0.000	
13	 C31	26.752	17.376	-5.714	C.2	1	RES1	0.000	
14	 C32	26.508	17.736	-4.396	C.2	1	RES1	0.000	
15	 C33	27.334	17.333	-3.341	C.2	1	RES1	0.000	
16	 C34	28.807	15.871	-1.185	C.2	1	RES1	0.000	
17	 C35	29.467	16.378	-0.066	C.2	1	RES1	0.000	
18	 C36	27.233	15.500	0.541	C.2	1	RES1	0.000	
19	 C37	26.019	15.089	1.275	C.3	1	RES1	0.000	
20	 C38	27.531	15.314	-0.818	C.2	1	RES1	0.000	
21	 C39	26.618	14.554	-1.729	C.3	1	RES1	0.000	
22	 C40	31.425	17.697	0.871	C.2	1	RES1	0.000	
23	 C41	30.797	18.520	1.959	C.3	1	RES1	0.000	
24	 C42	31.787	16.389	-0.848	C.2	1	RES1	0.000	
@<TRIPOS>BOND
1 1 13 1
2 2 17 ar
3 2 18 ar
4 5 6 ar
5 7 8 1
6 3 8 1
7 8 24 1
8 3 9 2
9 9 10 1
10 9 16 1
11 10 11 ar
12 10 15 ar
13 11 12 ar
14 12 13 ar
15 13 14 ar
16 14 15 ar
17 16 17 ar
18 16 20 ar
19 4 17 1
20 18 19 1
21 18 20 ar
22 20 21 1
23 4 22 ar
24 5 22 ar
25 22 23 1
26 4 24 ar
27 6 24 ar
@<TRIPOS>SUBSTRUCTURE
1	RES1	1	GROUP	1 ****	RES
