# created with PyMOL 2.5.2
@<TRIPOS>MOLECULE
BRD4_6YQN_TargetProtein
24 27 1                 
SMALL
USER_CHARGES
@<TRIPOS>ATOM
1	 CL1	25.726	17.890	-6.989	Cl	1	RES1	0.000	
2	  S1	28.493	16.315	1.346	S.2	1	RES1	0.000	
3	  N5	30.591	15.777	-2.876	N.2	1	RES1	0.000	
4	  N6	30.795	16.826	0.019	N.2	1	RES1	0.000	
5	  N7	32.714	17.787	0.550	N.2	1	RES1	0.000	
6	  N8	32.937	16.954	-0.522	N.2	1	RES1	0.000	
7	 C25	32.838	14.949	-2.611	C.3	1	RES1	0.000	
8	 C26	31.534	15.324	-1.861	C.3	1	RES1	0.000	
9	 C27	29.330	16.025	-2.543	C.2	1	RES1	0.000	
10	 C28	28.414	16.486	-3.654	C.2	1	RES1	0.000	
11	 C29	28.691	16.104	-4.976	C.2	1	RES1	0.000	
12	 C30	27.864	16.534	-6.001	C.2	1	RES1	0.000	
13	 C31	26.759	17.391	-5.724	C.2	1	RES1	0.000	
14	 C32	26.494	17.743	-4.404	C.2	1	RES1	0.000	
15	 C33	27.322	17.308	-3.366	C.2	1	RES1	0.000	
16	 C34	28.811	15.876	-1.208	C.2	1	RES1	0.000	
17	 C35	29.468	16.365	-0.067	C.2	1	RES1	0.000	
18	 C36	27.255	15.504	0.516	C.2	1	RES1	0.000	
19	 C37	26.012	15.077	1.307	C.3	1	RES1	0.000	
20	 C38	27.523	15.300	-0.810	C.2	1	RES1	0.000	
21	 C39	26.610	14.574	-1.744	C.3	1	RES1	0.000	
22	 C40	31.433	17.711	0.874	C.2	1	RES1	0.000	
23	 C41	30.794	18.492	1.957	C.3	1	RES1	0.000	
24	 C42	31.795	16.369	-0.824	C.2	1	RES1	0.000	
@<TRIPOS>BOND
1 1 13 1
2 2 17 ar
3 2 18 ar
4 5 6 ar
5 7 8 1
6 3 8 1
7 8 24 1
8 3 9 2
9 9 10 1
10 9 16 1
11 10 11 ar
12 10 15 ar
13 11 12 ar
14 12 13 ar
15 13 14 ar
16 14 15 ar
17 16 17 ar
18 16 20 ar
19 4 17 1
20 18 19 1
21 18 20 ar
22 20 21 1
23 4 22 ar
24 5 22 ar
25 22 23 1
26 4 24 ar
27 6 24 ar
@<TRIPOS>SUBSTRUCTURE
1	RES1	1	GROUP	1 ****	RES
