# created with PyMOL 2.5.2
@<TRIPOS>MOLECULE
BRD4_6YQN_TargetProtein
24 27 1                 
SMALL
USER_CHARGES
@<TRIPOS>ATOM
1	 CL1	25.728	17.917	-7.000	Cl	1	RES1	0.000	
2	  S1	28.500	16.304	1.368	S.2	1	RES1	0.000	
3	  N5	30.579	15.749	-2.870	N.2	1	RES1	0.000	
4	  N6	30.786	16.823	-0.007	N.2	1	RES1	0.000	
5	  N7	32.678	17.781	0.541	N.2	1	RES1	0.000	
6	  N8	32.921	16.956	-0.527	N.2	1	RES1	0.000	
7	 C25	32.839	14.956	-2.600	C.3	1	RES1	0.000	
8	 C26	31.537	15.329	-1.862	C.3	1	RES1	0.000	
9	 C27	29.324	15.998	-2.554	C.2	1	RES1	0.000	
10	 C28	28.416	16.492	-3.633	C.2	1	RES1	0.000	
11	 C29	28.708	16.123	-4.967	C.2	1	RES1	0.000	
12	 C30	27.882	16.559	-6.001	C.2	1	RES1	0.000	
13	 C31	26.762	17.355	-5.712	C.2	1	RES1	0.000	
14	 C32	26.499	17.749	-4.404	C.2	1	RES1	0.000	
15	 C33	27.321	17.303	-3.387	C.2	1	RES1	0.000	
16	 C34	28.811	15.888	-1.185	C.2	1	RES1	0.000	
17	 C35	29.460	16.361	-0.068	C.2	1	RES1	0.000	
18	 C36	27.243	15.500	0.520	C.2	1	RES1	0.000	
19	 C37	26.039	15.086	1.285	C.3	1	RES1	0.000	
20	 C38	27.520	15.287	-0.789	C.2	1	RES1	0.000	
21	 C39	26.613	14.575	-1.728	C.3	1	RES1	0.000	
22	 C40	31.423	17.702	0.869	C.2	1	RES1	0.000	
23	 C41	30.818	18.500	1.942	C.3	1	RES1	0.000	
24	 C42	31.797	16.389	-0.842	C.2	1	RES1	0.000	
@<TRIPOS>BOND
1 1 13 1
2 2 17 ar
3 2 18 ar
4 5 6 ar
5 7 8 1
6 3 8 1
7 8 24 1
8 3 9 2
9 9 10 1
10 9 16 1
11 10 11 ar
12 10 15 ar
13 11 12 ar
14 12 13 ar
15 13 14 ar
16 14 15 ar
17 16 17 ar
18 16 20 ar
19 4 17 1
20 18 19 1
21 18 20 ar
22 20 21 1
23 4 22 ar
24 5 22 ar
25 22 23 1
26 4 24 ar
27 6 24 ar
@<TRIPOS>SUBSTRUCTURE
1	RES1	1	GROUP	1 ****	RES
