# created with PyMOL 2.5.2
@<TRIPOS>MOLECULE
BRD4_6YQN_TargetProtein
24 27 1                 
SMALL
USER_CHARGES
@<TRIPOS>ATOM
1	 CL1	25.721	17.916	-6.990	Cl	1	RES1	0.000	
2	  S1	28.502	16.319	1.365	S.2	1	RES1	0.000	
3	  N5	30.573	15.763	-2.876	N.2	1	RES1	0.000	
4	  N6	30.782	16.824	0.014	N.2	1	RES1	0.000	
5	  N7	32.692	17.779	0.549	N.2	1	RES1	0.000	
6	  N8	32.930	16.960	-0.530	N.2	1	RES1	0.000	
7	 C25	32.847	14.938	-2.594	C.3	1	RES1	0.000	
8	 C26	31.560	15.337	-1.853	C.3	1	RES1	0.000	
9	 C27	29.345	16.018	-2.563	C.2	1	RES1	0.000	
10	 C28	28.414	16.474	-3.652	C.2	1	RES1	0.000	
11	 C29	28.680	16.105	-4.974	C.2	1	RES1	0.000	
12	 C30	27.845	16.548	-6.015	C.2	1	RES1	0.000	
13	 C31	26.780	17.365	-5.710	C.2	1	RES1	0.000	
14	 C32	26.510	17.748	-4.404	C.2	1	RES1	0.000	
15	 C33	27.336	17.308	-3.377	C.2	1	RES1	0.000	
16	 C34	28.805	15.877	-1.187	C.2	1	RES1	0.000	
17	 C35	29.444	16.364	-0.057	C.2	1	RES1	0.000	
18	 C36	27.257	15.500	0.534	C.2	1	RES1	0.000	
19	 C37	26.028	15.092	1.286	C.3	1	RES1	0.000	
20	 C38	27.533	15.280	-0.807	C.2	1	RES1	0.000	
21	 C39	26.607	14.572	-1.752	C.3	1	RES1	0.000	
22	 C40	31.430	17.718	0.866	C.2	1	RES1	0.000	
23	 C41	30.811	18.485	1.964	C.3	1	RES1	0.000	
24	 C42	31.770	16.391	-0.849	C.2	1	RES1	0.000	
@<TRIPOS>BOND
1 1 13 1
2 2 17 ar
3 2 18 ar
4 5 6 ar
5 7 8 1
6 3 8 1
7 8 24 1
8 3 9 2
9 9 10 1
10 9 16 1
11 10 11 ar
12 10 15 ar
13 11 12 ar
14 12 13 ar
15 13 14 ar
16 14 15 ar
17 16 17 ar
18 16 20 ar
19 4 17 1
20 18 19 1
21 18 20 ar
22 20 21 1
23 4 22 ar
24 5 22 ar
25 22 23 1
26 4 24 ar
27 6 24 ar
@<TRIPOS>SUBSTRUCTURE
1	RES1	1	GROUP	1 ****	RES
