# created with PyMOL 2.5.2
@<TRIPOS>MOLECULE
BRD4_6YQN_TargetProtein
24 27 1                 
SMALL
USER_CHARGES
@<TRIPOS>ATOM
1	 CL1	25.724	17.884	-6.999	Cl	1	RES1	0.000	
2	  S1	28.493	16.305	1.354	S.2	1	RES1	0.000	
3	  N5	30.571	15.769	-2.877	N.2	1	RES1	0.000	
4	  N6	30.800	16.847	0.002	N.2	1	RES1	0.000	
5	  N7	32.704	17.773	0.542	N.2	1	RES1	0.000	
6	  N8	32.935	16.940	-0.526	N.2	1	RES1	0.000	
7	 C25	32.833	14.964	-2.594	C.3	1	RES1	0.000	
8	 C26	31.536	15.338	-1.863	C.3	1	RES1	0.000	
9	 C27	29.337	16.020	-2.543	C.2	1	RES1	0.000	
10	 C28	28.431	16.486	-3.650	C.2	1	RES1	0.000	
11	 C29	28.705	16.096	-4.969	C.2	1	RES1	0.000	
12	 C30	27.855	16.553	-5.996	C.2	1	RES1	0.000	
13	 C31	26.760	17.371	-5.695	C.2	1	RES1	0.000	
14	 C32	26.507	17.744	-4.388	C.2	1	RES1	0.000	
15	 C33	27.324	17.326	-3.385	C.2	1	RES1	0.000	
16	 C34	28.798	15.900	-1.183	C.2	1	RES1	0.000	
17	 C35	29.468	16.366	-0.060	C.2	1	RES1	0.000	
18	 C36	27.232	15.503	0.510	C.2	1	RES1	0.000	
19	 C37	26.020	15.089	1.275	C.3	1	RES1	0.000	
20	 C38	27.534	15.298	-0.837	C.2	1	RES1	0.000	
21	 C39	26.620	14.546	-1.717	C.3	1	RES1	0.000	
22	 C40	31.426	17.692	0.879	C.2	1	RES1	0.000	
23	 C41	30.816	18.497	1.963	C.3	1	RES1	0.000	
24	 C42	31.778	16.376	-0.853	C.2	1	RES1	0.000	
@<TRIPOS>BOND
1 1 13 1
2 2 17 ar
3 2 18 ar
4 5 6 ar
5 7 8 1
6 3 8 1
7 8 24 1
8 3 9 2
9 9 10 1
10 9 16 1
11 10 11 ar
12 10 15 ar
13 11 12 ar
14 12 13 ar
15 13 14 ar
16 14 15 ar
17 16 17 ar
18 16 20 ar
19 4 17 1
20 18 19 1
21 18 20 ar
22 20 21 1
23 4 22 ar
24 5 22 ar
25 22 23 1
26 4 24 ar
27 6 24 ar
@<TRIPOS>SUBSTRUCTURE
1	RES1	1	GROUP	1 ****	RES
