# created with PyMOL 2.5.2
@<TRIPOS>MOLECULE
BRD4_6YQN_TargetProtein
24 27 1                 
SMALL
USER_CHARGES
@<TRIPOS>ATOM
1	 CL1	25.742	17.902	-7.002	Cl	1	RES1	0.000	
2	  S1	28.511	16.295	1.369	S.2	1	RES1	0.000	
3	  N5	30.560	15.766	-2.870	N.2	1	RES1	0.000	
4	  N6	30.779	16.810	0.006	N.2	1	RES1	0.000	
5	  N7	32.701	17.801	0.549	N.2	1	RES1	0.000	
6	  N8	32.922	16.970	-0.513	N.2	1	RES1	0.000	
7	 C25	32.836	14.938	-2.613	C.3	1	RES1	0.000	
8	 C26	31.555	15.316	-1.865	C.3	1	RES1	0.000	
9	 C27	29.327	15.998	-2.581	C.2	1	RES1	0.000	
10	 C28	28.409	16.486	-3.633	C.2	1	RES1	0.000	
11	 C29	28.696	16.134	-4.980	C.2	1	RES1	0.000	
12	 C30	27.873	16.553	-6.010	C.2	1	RES1	0.000	
13	 C31	26.790	17.368	-5.709	C.2	1	RES1	0.000	
14	 C32	26.493	17.731	-4.401	C.2	1	RES1	0.000	
15	 C33	27.309	17.291	-3.364	C.2	1	RES1	0.000	
16	 C34	28.798	15.885	-1.189	C.2	1	RES1	0.000	
17	 C35	29.461	16.383	-0.065	C.2	1	RES1	0.000	
18	 C36	27.236	15.508	0.538	C.2	1	RES1	0.000	
19	 C37	26.035	15.089	1.294	C.3	1	RES1	0.000	
20	 C38	27.535	15.313	-0.815	C.2	1	RES1	0.000	
21	 C39	26.606	14.562	-1.733	C.3	1	RES1	0.000	
22	 C40	31.432	17.692	0.872	C.2	1	RES1	0.000	
23	 C41	30.817	18.487	1.952	C.3	1	RES1	0.000	
24	 C42	31.779	16.401	-0.847	C.2	1	RES1	0.000	
@<TRIPOS>BOND
1 1 13 1
2 2 17 ar
3 2 18 ar
4 5 6 ar
5 7 8 1
6 3 8 1
7 8 24 1
8 3 9 2
9 9 10 1
10 9 16 1
11 10 11 ar
12 10 15 ar
13 11 12 ar
14 12 13 ar
15 13 14 ar
16 14 15 ar
17 16 17 ar
18 16 20 ar
19 4 17 1
20 18 19 1
21 18 20 ar
22 20 21 1
23 4 22 ar
24 5 22 ar
25 22 23 1
26 4 24 ar
27 6 24 ar
@<TRIPOS>SUBSTRUCTURE
1	RES1	1	GROUP	1 ****	RES
