# created with PyMOL 2.5.2
@<TRIPOS>MOLECULE
BRD4_6YQN_TargetProtein
24 27 1                 
SMALL
USER_CHARGES
@<TRIPOS>ATOM
1	 CL1	25.724	17.893	-6.993	Cl	1	RES1	0.000	
2	  S1	28.519	16.325	1.356	S.2	1	RES1	0.000	
3	  N5	30.566	15.769	-2.875	N.2	1	RES1	0.000	
4	  N6	30.781	16.805	-0.018	N.2	1	RES1	0.000	
5	  N7	32.723	17.778	0.558	N.2	1	RES1	0.000	
6	  N8	32.910	16.963	-0.520	N.2	1	RES1	0.000	
7	 C25	32.836	14.959	-2.581	C.3	1	RES1	0.000	
8	 C26	31.564	15.322	-1.866	C.3	1	RES1	0.000	
9	 C27	29.331	16.015	-2.553	C.2	1	RES1	0.000	
10	 C28	28.420	16.471	-3.652	C.2	1	RES1	0.000	
11	 C29	28.696	16.107	-4.983	C.2	1	RES1	0.000	
12	 C30	27.854	16.544	-5.990	C.2	1	RES1	0.000	
13	 C31	26.754	17.368	-5.708	C.2	1	RES1	0.000	
14	 C32	26.497	17.761	-4.407	C.2	1	RES1	0.000	
15	 C33	27.334	17.320	-3.354	C.2	1	RES1	0.000	
16	 C34	28.786	15.884	-1.193	C.2	1	RES1	0.000	
17	 C35	29.461	16.359	-0.065	C.2	1	RES1	0.000	
18	 C36	27.239	15.502	0.520	C.2	1	RES1	0.000	
19	 C37	26.031	15.099	1.272	C.3	1	RES1	0.000	
20	 C38	27.533	15.296	-0.812	C.2	1	RES1	0.000	
21	 C39	26.624	14.567	-1.741	C.3	1	RES1	0.000	
22	 C40	31.438	17.697	0.881	C.2	1	RES1	0.000	
23	 C41	30.790	18.486	1.950	C.3	1	RES1	0.000	
24	 C42	31.792	16.392	-0.834	C.2	1	RES1	0.000	
@<TRIPOS>BOND
1 1 13 1
2 2 17 ar
3 2 18 ar
4 5 6 ar
5 7 8 1
6 3 8 1
7 8 24 1
8 3 9 2
9 9 10 1
10 9 16 1
11 10 11 ar
12 10 15 ar
13 11 12 ar
14 12 13 ar
15 13 14 ar
16 14 15 ar
17 16 17 ar
18 16 20 ar
19 4 17 1
20 18 19 1
21 18 20 ar
22 20 21 1
23 4 22 ar
24 5 22 ar
25 22 23 1
26 4 24 ar
27 6 24 ar
@<TRIPOS>SUBSTRUCTURE
1	RES1	1	GROUP	1 ****	RES
