# created with PyMOL 2.5.2
@<TRIPOS>MOLECULE
BRD4_6YQN_TargetProtein
24 27 1                 
SMALL
USER_CHARGES
@<TRIPOS>ATOM
1	 CL1	25.755	17.898	-6.984	Cl	1	RES1	0.000	
2	  S1	28.487	16.309	1.353	S.2	1	RES1	0.000	
3	  N5	30.606	15.783	-2.873	N.2	1	RES1	0.000	
4	  N6	30.804	16.821	0.019	N.2	1	RES1	0.000	
5	  N7	32.728	17.770	0.552	N.2	1	RES1	0.000	
6	  N8	32.923	16.961	-0.527	N.2	1	RES1	0.000	
7	 C27	32.813	14.948	-2.608	C.3	1	RES1	0.000	
8	 C28	31.549	15.322	-1.866	C.3	1	RES1	0.000	
9	 C29	29.344	16.020	-2.550	C.2	1	RES1	0.000	
10	 C30	28.419	16.487	-3.645	C.2	1	RES1	0.000	
11	 C31	28.682	16.121	-4.999	C.2	1	RES1	0.000	
12	 C32	27.859	16.542	-6.006	C.2	1	RES1	0.000	
13	 C33	26.767	17.361	-5.707	C.2	1	RES1	0.000	
14	 C34	26.491	17.759	-4.417	C.2	1	RES1	0.000	
15	 C35	27.309	17.298	-3.379	C.2	1	RES1	0.000	
16	 C36	28.811	15.891	-1.196	C.2	1	RES1	0.000	
17	 C37	29.462	16.370	-0.070	C.2	1	RES1	0.000	
18	 C38	27.236	15.498	0.542	C.2	1	RES1	0.000	
19	 C39	26.042	15.094	1.295	C.3	1	RES1	0.000	
20	 C40	27.532	15.301	-0.798	C.2	1	RES1	0.000	
21	 C41	26.623	14.559	-1.720	C.3	1	RES1	0.000	
22	 C42	31.401	17.665	0.863	C.2	1	RES1	0.000	
23	 C43	30.790	18.497	1.955	C.3	1	RES1	0.000	
24	 C44	31.769	16.409	-0.842	C.2	1	RES1	0.000	
@<TRIPOS>BOND
1 1 13 1
2 2 17 ar
3 2 18 ar
4 5 6 ar
5 7 8 1
6 3 8 1
7 8 24 1
8 3 9 2
9 9 10 1
10 9 16 1
11 10 11 ar
12 10 15 ar
13 11 12 ar
14 12 13 ar
15 13 14 ar
16 14 15 ar
17 16 17 ar
18 16 20 ar
19 4 17 1
20 18 19 1
21 18 20 ar
22 20 21 1
23 4 22 ar
24 5 22 ar
25 22 23 1
26 4 24 ar
27 6 24 ar
@<TRIPOS>SUBSTRUCTURE
1	RES1	1	GROUP	1 ****	RES
