# created with PyMOL 2.5.2
@<TRIPOS>MOLECULE
CRBN_6H0G_TargetProtein
20 22 1                 
SMALL
USER_CHARGES
@<TRIPOS>ATOM
1	  N3	1.979	54.436	-85.601	N.pl3	1	RES1	0.000	
2	  N4	1.724	51.783	-82.118	N.2	1	RES1	0.000	
3	  N5	1.978	50.059	-78.871	N.pl3	1	RES1	0.000	
4	  O5	2.815	53.766	-82.859	O.2	1	RES1	0.000	
5	  O6	3.702	49.682	-77.387	O.2	1	RES1	0.000	
6	  O7	0.202	50.426	-80.233	O.2	1	RES1	0.000	
7	  O8	0.437	49.813	-82.227	O.2	1	RES1	0.000	
8	 C19	1.351	53.193	-85.446	C.2	1	RES1	0.000	
9	 C20	0.526	52.688	-86.471	C.2	1	RES1	0.000	
10	 C21	-0.185	51.465	-86.270	C.2	1	RES1	0.000	
11	 C22	-0.134	50.777	-85.071	C.2	1	RES1	0.000	
12	 C23	0.648	51.345	-84.061	C.2	1	RES1	0.000	
13	 C24	1.357	52.506	-84.233	C.2	1	RES1	0.000	
14	 C25	2.066	52.810	-83.006	C.2	1	RES1	0.000	
15	 C26	2.232	51.647	-80.749	C.3	1	RES1	0.000	
16	 C27	3.714	51.259	-80.683	C.3	1	RES1	0.000	
17	 C28	4.159	51.191	-79.200	C.3	1	RES1	0.000	
18	 C29	3.278	50.235	-78.410	C.2	1	RES1	0.000	
19	 C30	1.384	50.646	-79.965	C.2	1	RES1	0.000	
20	 C31	0.891	50.865	-82.704	C.2	1	RES1	0.000	
@<TRIPOS>BOND
1 1 8 1
2 8 9 ar
3 8 13 ar
4 9 10 ar
5 10 11 ar
6 11 12 ar
7 12 13 ar
8 12 20 ar
9 13 14 ar
10 2 14 ar
11 4 14 2
12 2 15 1
13 15 16 1
14 15 19 1
15 16 17 1
16 17 18 1
17 3 18 1
18 5 18 2
19 3 19 1
20 6 19 2
21 2 20 ar
22 7 20 2
@<TRIPOS>SUBSTRUCTURE
1	RES1	1	GROUP	1 ****	RES
