# created with PyMOL 2.5.2
@<TRIPOS>MOLECULE
BRD4_6YQN_TargetProtein
24 27 1                 
SMALL
USER_CHARGES
@<TRIPOS>ATOM
1	 CL1	25.728	17.902	-6.989	Cl	1	RES1	0.000	
2	  S1	28.510	16.328	1.343	S.2	1	RES1	0.000	
3	  N6	30.600	15.781	-2.863	N.2	1	RES1	0.000	
4	  N7	30.775	16.814	0.002	N.2	1	RES1	0.000	
5	  N8	32.702	17.788	0.547	N.2	1	RES1	0.000	
6	  N9	32.918	16.959	-0.526	N.2	1	RES1	0.000	
7	 C34	32.828	14.947	-2.595	C.3	1	RES1	0.000	
8	 C35	31.560	15.308	-1.863	C.3	1	RES1	0.000	
9	 C36	29.315	16.004	-2.566	C.2	1	RES1	0.000	
10	 C37	28.423	16.462	-3.641	C.2	1	RES1	0.000	
11	 C38	28.702	16.112	-4.964	C.2	1	RES1	0.000	
12	 C39	27.862	16.566	-5.997	C.2	1	RES1	0.000	
13	 C40	26.761	17.366	-5.722	C.2	1	RES1	0.000	
14	 C41	26.493	17.728	-4.390	C.2	1	RES1	0.000	
15	 C42	27.317	17.315	-3.361	C.2	1	RES1	0.000	
16	 C43	28.783	15.887	-1.188	C.2	1	RES1	0.000	
17	 C44	29.465	16.362	-0.049	C.2	1	RES1	0.000	
18	 C45	27.253	15.499	0.527	C.2	1	RES1	0.000	
19	 C46	26.027	15.103	1.294	C.3	1	RES1	0.000	
20	 C47	27.536	15.292	-0.821	C.2	1	RES1	0.000	
21	 C48	26.611	14.576	-1.770	C.3	1	RES1	0.000	
22	 C49	31.437	17.691	0.864	C.2	1	RES1	0.000	
23	 C50	30.800	18.486	1.952	C.3	1	RES1	0.000	
24	 C51	31.796	16.405	-0.833	C.2	1	RES1	0.000	
@<TRIPOS>BOND
1 1 13 1
2 2 17 ar
3 2 18 ar
4 5 6 ar
5 7 8 1
6 3 8 1
7 8 24 1
8 3 9 2
9 9 10 1
10 9 16 1
11 10 11 ar
12 10 15 ar
13 11 12 ar
14 12 13 ar
15 13 14 ar
16 14 15 ar
17 16 17 ar
18 16 20 ar
19 4 17 1
20 18 19 1
21 18 20 ar
22 20 21 1
23 4 22 ar
24 5 22 ar
25 22 23 1
26 4 24 ar
27 6 24 ar
@<TRIPOS>SUBSTRUCTURE
1	RES1	1	GROUP	1 ****	RES
