# created with PyMOL 2.5.2
@<TRIPOS>MOLECULE
CDK6_2EUF_TargetProtein
33 37 1                 
SMALL
USER_CHARGES
@<TRIPOS>ATOM
1	  C1	34.416	27.814	59.505	C.3	1	RES1	0.000	
2	  N1	31.529	22.665	63.430	N.2	1	RES1	0.000	
3	  O1	32.453	28.770	60.507	O.2	1	RES1	0.000	
4	  C2	33.043	27.752	60.208	C.2	1	RES1	0.000	
5	  N2	30.287	20.872	62.733	N.pl3	1	RES1	0.000	
6	  C3	32.497	26.405	60.487	C.2	1	RES1	0.000	
7	  N3	27.657	16.643	60.014	N.pl3	1	RES1	0.000	
8	  C4	32.693	25.834	61.687	C.2	1	RES1	0.000	
9	  N4	26.488	14.469	58.473	N.3	1	RES1	0.000	
10	  C5	33.535	26.440	62.804	C.3	1	RES1	0.000	
11	  C6	32.063	24.522	61.958	C.2	1	RES1	0.000	
12	  C7	32.123	23.861	63.176	C.2	1	RES1	0.000	
13	  C8	30.870	22.088	62.437	C.2	1	RES1	0.000	
14	  O8	31.522	26.319	58.358	O.2	1	RES1	0.000	
15	  C9	29.615	19.873	61.981	C.2	1	RES1	0.000	
16	 C10	29.121	20.067	60.711	C.2	1	RES1	0.000	
17	 C11	28.469	19.015	60.055	C.2	1	RES1	0.000	
18	 C12	28.311	17.754	60.658	C.2	1	RES1	0.000	
19	 C13	28.384	15.376	59.838	C.3	1	RES1	0.000	
20	 N13	29.492	18.662	62.621	N.2	1	RES1	0.000	
21	 C14	27.440	14.218	59.567	C.3	1	RES1	0.000	
22	 N14	30.759	22.663	61.207	N.2	1	RES1	0.000	
23	 N15	31.237	24.435	59.652	N.2	1	RES1	0.000	
24	 C48	25.715	15.684	58.829	C.3	1	RES1	0.000	
25	 C49	26.573	16.915	59.053	C.3	1	RES1	0.000	
26	 C50	28.845	17.687	61.951	C.2	1	RES1	0.000	
27	 C51	31.347	23.868	60.959	C.2	1	RES1	0.000	
28	 C52	30.515	23.690	58.628	C.3	1	RES1	0.000	
29	 C53	31.411	23.023	57.533	C.3	1	RES1	0.000	
30	 C54	30.874	23.561	56.215	C.3	1	RES1	0.000	
31	 C55	29.432	23.890	56.495	C.3	1	RES1	0.000	
32	 C56	29.485	24.503	57.886	C.3	1	RES1	0.000	
33	 C57	31.701	25.729	59.409	C.2	1	RES1	0.000	
@<TRIPOS>BOND
1 1 4 1
2 2 12 ar
3 2 13 ar
4 3 4 2
5 4 6 1
6 5 13 1
7 5 15 1
8 6 8 ar
9 6 33 ar
10 7 25 1
11 8 10 1
12 8 11 ar
13 9 24 1
14 11 12 ar
15 15 16 ar
16 16 17 ar
17 17 18 ar
18 7 18 1
19 18 26 ar
20 7 19 1
21 19 21 1
22 15 20 ar
23 20 26 ar
24 9 21 1
25 13 22 ar
26 22 27 ar
27 23 27 ar
28 23 28 1
29 23 33 ar
30 24 25 1
31 11 27 ar
32 28 29 1
33 28 32 1
34 29 30 1
35 30 31 1
36 31 32 1
37 14 33 2
@<TRIPOS>SUBSTRUCTURE
1	RES1	1	GROUP	1 ****	RES
