# created with PyMOL 2.5.2
@<TRIPOS>MOLECULE
CDK6_2EUF_TargetProtein
33 37 1                 
SMALL
USER_CHARGES
@<TRIPOS>ATOM
1	  C1	34.697	27.882	59.759	C.3	1	RES1	0.000	
2	  N1	31.359	22.820	63.376	N.2	1	RES1	0.000	
3	  O1	32.627	28.856	60.448	O.2	1	RES1	0.000	
4	  C2	33.271	27.837	60.265	C.2	1	RES1	0.000	
5	  N2	30.213	20.945	62.592	N.pl3	1	RES1	0.000	
6	  C3	32.661	26.500	60.493	C.2	1	RES1	0.000	
7	  N3	27.769	16.695	59.817	N.pl3	1	RES1	0.000	
8	  C4	32.675	25.956	61.739	C.2	1	RES1	0.000	
9	  N4	26.413	14.327	58.762	N.3	1	RES1	0.000	
10	  C5	33.326	26.604	62.964	C.3	1	RES1	0.000	
11	  C6	32.037	24.634	61.897	C.2	1	RES1	0.000	
12	  C7	31.935	23.999	63.171	C.2	1	RES1	0.000	
13	  C8	30.811	22.196	62.285	C.2	1	RES1	0.000	
14	  C9	29.617	19.926	61.838	C.2	1	RES1	0.000	
15	  O9	32.067	26.326	58.256	O.2	1	RES1	0.000	
16	 C10	29.258	20.092	60.488	C.2	1	RES1	0.000	
17	 C11	28.627	19.040	59.829	C.2	1	RES1	0.000	
18	 C12	28.390	17.809	60.457	C.2	1	RES1	0.000	
19	 C13	28.461	15.369	59.761	C.3	1	RES1	0.000	
20	 N13	29.415	18.786	62.475	N.2	1	RES1	0.000	
21	 C14	27.887	14.456	58.678	C.3	1	RES1	0.000	
22	 N14	30.881	22.732	61.071	N.2	1	RES1	0.000	
23	 N15	31.492	24.503	59.565	N.2	1	RES1	0.000	
24	 C50	25.806	15.654	58.660	C.3	1	RES1	0.000	
25	 C51	26.300	16.643	59.716	C.3	1	RES1	0.000	
26	 C52	28.830	17.764	61.830	C.2	1	RES1	0.000	
27	 C53	31.452	23.930	60.866	C.2	1	RES1	0.000	
28	 C54	30.919	23.829	58.384	C.3	1	RES1	0.000	
29	 C55	29.963	24.668	57.520	C.3	1	RES1	0.000	
30	 C56	29.193	23.648	56.701	C.3	1	RES1	0.000	
31	 C57	29.371	22.304	57.363	C.3	1	RES1	0.000	
32	 C58	30.115	22.556	58.667	C.3	1	RES1	0.000	
33	 C59	32.065	25.776	59.331	C.2	1	RES1	0.000	
@<TRIPOS>BOND
1 1 4 1
2 2 12 ar
3 2 13 ar
4 3 4 2
5 4 6 1
6 5 13 1
7 5 14 1
8 6 8 ar
9 6 33 ar
10 7 25 1
11 8 10 1
12 8 11 ar
13 9 24 1
14 11 12 ar
15 14 16 ar
16 16 17 ar
17 17 18 ar
18 7 18 1
19 18 26 ar
20 7 19 1
21 19 21 1
22 14 20 ar
23 20 26 ar
24 9 21 1
25 13 22 ar
26 22 27 ar
27 23 27 ar
28 23 28 1
29 23 33 ar
30 24 25 1
31 11 27 ar
32 28 29 1
33 28 32 1
34 29 30 1
35 30 31 1
36 31 32 1
37 15 33 2
@<TRIPOS>SUBSTRUCTURE
1	RES1	1	GROUP	1 ****	RES
