# created with PyMOL 2.5.2
@<TRIPOS>MOLECULE
CDK6_2EUF_TargetProtein
33 37 1                 
SMALL
USER_CHARGES
@<TRIPOS>ATOM
1	  C1	34.732	27.530	59.477	C.3	1	RES1	0.000	
2	  N1	31.412	22.943	63.568	N.2	1	RES1	0.000	
3	  O1	32.729	28.712	59.986	O.2	1	RES1	0.000	
4	  C2	33.293	27.627	59.960	C.2	1	RES1	0.000	
5	  N2	30.272	20.983	62.780	N.pl3	1	RES1	0.000	
6	  C3	32.624	26.350	60.337	C.2	1	RES1	0.000	
7	  N3	27.848	16.896	59.731	N.pl3	1	RES1	0.000	
8	  C4	32.619	25.990	61.655	C.2	1	RES1	0.000	
9	  N4	26.830	14.827	57.984	N.3	1	RES1	0.000	
10	  C5	33.162	26.808	62.785	C.3	1	RES1	0.000	
11	  C6	32.008	24.672	61.996	C.2	1	RES1	0.000	
12	  C7	31.951	24.134	63.241	C.2	1	RES1	0.000	
13	  C8	30.871	22.252	62.557	C.2	1	RES1	0.000	
14	  C9	29.671	20.030	61.939	C.2	1	RES1	0.000	
15	 C10	29.277	20.254	60.651	C.2	1	RES1	0.000	
16	 O10	32.110	25.915	58.123	O.2	1	RES1	0.000	
17	 C11	28.686	19.253	59.911	C.2	1	RES1	0.000	
18	 C12	28.442	17.953	60.454	C.2	1	RES1	0.000	
19	 C13	28.564	15.610	59.572	C.3	1	RES1	0.000	
20	 N13	29.458	18.828	62.532	N.2	1	RES1	0.000	
21	 C14	27.650	14.474	59.128	C.3	1	RES1	0.000	
22	 N14	30.869	22.681	61.304	N.2	1	RES1	0.000	
23	 N15	31.402	24.314	59.648	N.2	1	RES1	0.000	
24	 C52	26.004	16.021	58.259	C.3	1	RES1	0.000	
25	 C53	26.883	17.210	58.656	C.3	1	RES1	0.000	
26	 C54	28.889	17.850	61.801	C.2	1	RES1	0.000	
27	 C55	31.427	23.861	61.003	C.2	1	RES1	0.000	
28	 C56	30.802	23.497	58.580	C.3	1	RES1	0.000	
29	 C57	29.877	24.252	57.603	C.3	1	RES1	0.000	
30	 C58	28.572	23.460	57.521	C.3	1	RES1	0.000	
31	 C59	28.969	22.068	57.942	C.3	1	RES1	0.000	
32	 C60	29.973	22.297	59.066	C.3	1	RES1	0.000	
33	 C61	32.026	25.515	59.279	C.2	1	RES1	0.000	
@<TRIPOS>BOND
1 1 4 1
2 2 12 ar
3 2 13 ar
4 3 4 2
5 4 6 1
6 5 13 1
7 5 14 1
8 6 8 ar
9 6 33 ar
10 7 25 1
11 8 10 1
12 8 11 ar
13 9 24 1
14 11 12 ar
15 14 15 ar
16 15 17 ar
17 16 33 2
18 17 18 ar
19 7 18 1
20 18 26 ar
21 7 19 1
22 19 21 1
23 14 20 ar
24 20 26 ar
25 9 21 1
26 13 22 ar
27 22 27 ar
28 23 27 ar
29 23 28 1
30 23 33 ar
31 24 25 1
32 11 27 ar
33 28 29 1
34 28 32 1
35 29 30 1
36 30 31 1
37 31 32 1
@<TRIPOS>SUBSTRUCTURE
1	RES1	1	GROUP	1 ****	RES
