# created with PyMOL 2.5.2
@<TRIPOS>MOLECULE
CDK6_2EUF_TargetProtein
33 37 1                 
SMALL
USER_CHARGES
@<TRIPOS>ATOM
1	  C1	34.384	27.865	59.548	C.3	1	RES1	0.000	
2	  N1	31.545	22.680	63.412	N.2	1	RES1	0.000	
3	  O1	32.402	28.797	60.535	O.2	1	RES1	0.000	
4	  C2	33.050	27.782	60.225	C.2	1	RES1	0.000	
5	  N2	30.287	20.844	62.703	N.pl3	1	RES1	0.000	
6	  C3	32.481	26.431	60.505	C.2	1	RES1	0.000	
7	  N3	27.636	16.673	59.953	N.pl3	1	RES1	0.000	
8	  C4	32.675	25.861	61.716	C.2	1	RES1	0.000	
9	  N4	26.301	14.302	58.903	N.3	1	RES1	0.000	
10	  C5	33.488	26.474	62.833	C.3	1	RES1	0.000	
11	  C6	32.048	24.539	61.935	C.2	1	RES1	0.000	
12	  C7	32.098	23.868	63.175	C.2	1	RES1	0.000	
13	  C8	30.875	22.071	62.403	C.2	1	RES1	0.000	
14	  C9	29.634	19.847	61.948	C.2	1	RES1	0.000	
15	 C10	29.202	20.045	60.636	C.2	1	RES1	0.000	
16	 C11	28.551	18.992	59.970	C.2	1	RES1	0.000	
17	 O11	31.558	26.336	58.360	O.2	1	RES1	0.000	
18	 C12	28.285	17.758	60.622	C.2	1	RES1	0.000	
19	 C13	28.316	15.356	59.901	C.3	1	RES1	0.000	
20	 N13	29.398	18.717	62.603	N.2	1	RES1	0.000	
21	 C14	27.759	14.452	58.827	C.3	1	RES1	0.000	
22	 N14	30.763	22.649	61.172	N.2	1	RES1	0.000	
23	 N15	31.281	24.423	59.656	N.2	1	RES1	0.000	
24	 C54	25.698	15.647	58.778	C.3	1	RES1	0.000	
25	 C55	26.172	16.608	59.850	C.3	1	RES1	0.000	
26	 C56	28.770	17.705	61.931	C.2	1	RES1	0.000	
27	 C57	31.371	23.861	60.944	C.2	1	RES1	0.000	
28	 C58	30.583	23.659	58.582	C.3	1	RES1	0.000	
29	 C59	31.519	23.080	57.492	C.3	1	RES1	0.000	
30	 C60	30.991	23.643	56.184	C.3	1	RES1	0.000	
31	 C61	29.515	23.898	56.462	C.3	1	RES1	0.000	
32	 C62	29.532	24.482	57.862	C.3	1	RES1	0.000	
33	 C63	31.734	25.716	59.399	C.2	1	RES1	0.000	
@<TRIPOS>BOND
1 1 4 1
2 2 12 ar
3 2 13 ar
4 3 4 2
5 4 6 1
6 5 13 1
7 5 14 1
8 6 8 ar
9 6 33 ar
10 7 25 1
11 8 10 1
12 8 11 ar
13 9 24 1
14 11 12 ar
15 14 15 ar
16 15 16 ar
17 16 18 ar
18 17 33 2
19 7 18 1
20 18 26 ar
21 7 19 1
22 19 21 1
23 14 20 ar
24 20 26 ar
25 9 21 1
26 13 22 ar
27 22 27 ar
28 23 27 ar
29 23 28 1
30 23 33 ar
31 24 25 1
32 11 27 ar
33 28 29 1
34 28 32 1
35 29 30 1
36 30 31 1
37 31 32 1
@<TRIPOS>SUBSTRUCTURE
1	RES1	1	GROUP	1 ****	RES
