# created with PyMOL 2.5.2
@<TRIPOS>MOLECULE
ALK_6MX8_TargetProtein
39 43 1                 
SMALL
USER_CHARGES
@<TRIPOS>ATOM
1	 CL1	5.682	14.546	10.293	Cl	1	RES1	0.000	
2	  P1	8.956	17.259	9.092	P.3	1	RES1	0.000	
3	  C1	-1.578	20.637	6.808	C.3	1	RES1	0.000	
4	  N1	2.562	23.448	6.064	N.pl3	1	RES1	0.000	
5	  O1	-0.587	19.978	7.598	O.3	1	RES1	0.000	
6	  C2	0.714	20.487	7.488	C.2	1	RES1	0.000	
7	  N2	3.746	26.776	3.717	N.3	1	RES1	0.000	
8	  C3	1.013	21.737	6.864	C.2	1	RES1	0.000	
9	  N3	5.052	27.151	1.119	N.3	1	RES1	0.000	
10	  C4	2.312	22.190	6.667	C.2	1	RES1	0.000	
11	  C5	2.289	23.688	4.611	C.3	1	RES1	0.000	
12	  C6	1.928	25.147	4.375	C.3	1	RES1	0.000	
13	  C7	3.019	26.131	4.851	C.3	1	RES1	0.000	
14	  O7	8.513	15.840	9.359	O.3	1	RES1	0.000	
15	  C8	5.035	26.165	3.409	C.3	1	RES1	0.000	
16	  N8	1.637	18.395	8.552	N.pl3	1	RES1	0.000	
17	  C9	5.806	26.917	2.358	C.3	1	RES1	0.000	
18	  N9	2.250	16.517	9.945	N.2	1	RES1	0.000	
19	 N10	6.047	16.784	8.212	N.pl3	1	RES1	0.000	
20	 N11	3.782	17.543	8.444	N.2	1	RES1	0.000	
21	 C36	3.757	27.767	1.429	C.3	1	RES1	0.000	
22	 C37	2.940	26.987	2.485	C.3	1	RES1	0.000	
23	 C38	3.924	25.503	5.918	C.3	1	RES1	0.000	
24	 C39	3.167	24.581	6.839	C.3	1	RES1	0.000	
25	 C40	3.338	21.333	7.065	C.2	1	RES1	0.000	
26	 C41	3.080	20.091	7.642	C.2	1	RES1	0.000	
27	 C42	1.799	19.643	7.884	C.2	1	RES1	0.000	
28	 C43	2.560	17.451	8.996	C.2	1	RES1	0.000	
29	 C44	3.209	15.661	10.285	C.2	1	RES1	0.000	
30	 C45	4.485	15.689	9.748	C.2	1	RES1	0.000	
31	 C46	4.752	16.667	8.797	C.2	1	RES1	0.000	
32	 C47	6.698	17.802	7.532	C.2	1	RES1	0.000	
33	 C48	6.057	18.539	6.515	C.2	1	RES1	0.000	
34	 C49	6.711	19.546	5.810	C.2	1	RES1	0.000	
35	 C50	8.024	19.859	6.116	C.2	1	RES1	0.000	
36	 C51	8.682	19.144	7.099	C.2	1	RES1	0.000	
37	 C52	8.046	18.125	7.815	C.2	1	RES1	0.000	
38	 C53	10.711	17.323	8.678	C.3	1	RES1	0.000	
39	 C54	8.888	18.217	10.654	C.3	1	RES1	0.000	
@<TRIPOS>BOND
1 1 30 1
2 2 14 1
3 2 37 1
4 2 38 1
5 2 39 1
6 4 10 1
7 4 11 1
8 4 24 1
9 3 5 1
10 5 6 1
11 6 8 ar
12 6 27 ar
13 7 13 1
14 7 15 1
15 7 22 1
16 8 10 ar
17 9 17 1
18 9 21 1
19 10 25 ar
20 11 12 1
21 12 13 1
22 15 17 1
23 19 31 1
24 19 32 1
25 20 28 ar
26 20 31 ar
27 21 22 1
28 13 23 1
29 23 24 1
30 25 26 ar
31 26 27 ar
32 16 27 1
33 16 28 1
34 18 28 ar
35 18 29 ar
36 29 30 ar
37 30 31 ar
38 32 33 ar
39 32 37 ar
40 33 34 ar
41 34 35 ar
42 35 36 ar
43 36 37 ar
@<TRIPOS>SUBSTRUCTURE
1	RES1	1	GROUP	1 ****	RES
