# created with PyMOL 2.5.2
@<TRIPOS>MOLECULE
ALK_6MX8_TargetProtein
39 43 1                 
SMALL
USER_CHARGES
@<TRIPOS>ATOM
1	 CL1	5.310	14.331	10.374	Cl	1	RES1	0.000	
2	  P1	9.033	16.821	9.407	P.3	1	RES1	0.000	
3	  C1	-1.467	20.488	6.962	C.3	1	RES1	0.000	
4	  N1	2.404	23.720	5.909	N.pl3	1	RES1	0.000	
5	  O1	-0.341	19.935	7.653	O.3	1	RES1	0.000	
6	  C2	0.905	20.608	7.394	C.2	1	RES1	0.000	
7	  N2	3.291	27.106	3.550	N.3	1	RES1	0.000	
8	  C3	1.025	21.843	6.760	C.2	1	RES1	0.000	
9	  N3	4.824	27.506	1.087	N.3	1	RES1	0.000	
10	  C4	2.272	22.454	6.549	C.2	1	RES1	0.000	
11	  C5	2.240	23.855	4.430	C.3	1	RES1	0.000	
12	  C6	1.716	25.235	4.085	C.3	1	RES1	0.000	
13	  C7	2.576	26.377	4.651	C.3	1	RES1	0.000	
14	  O7	8.524	15.446	9.758	O.3	1	RES1	0.000	
15	  C8	4.736	26.726	3.445	C.3	1	RES1	0.000	
16	  N8	1.854	18.625	8.453	N.pl3	1	RES1	0.000	
17	  C9	5.471	27.585	2.411	C.3	1	RES1	0.000	
18	  N9	2.244	16.730	9.764	N.2	1	RES1	0.000	
19	 N10	6.184	16.482	8.391	N.pl3	1	RES1	0.000	
20	 N11	4.019	17.548	8.449	N.2	1	RES1	0.000	
21	 C37	3.396	27.870	1.202	C.3	1	RES1	0.000	
22	 C38	2.661	27.011	2.230	C.3	1	RES1	0.000	
23	 C39	3.447	25.960	5.833	C.3	1	RES1	0.000	
24	 C40	2.722	24.916	6.701	C.3	1	RES1	0.000	
25	 C41	3.397	21.712	6.994	C.2	1	RES1	0.000	
26	 C42	3.277	20.486	7.619	C.2	1	RES1	0.000	
27	 C43	2.039	19.874	7.822	C.2	1	RES1	0.000	
28	 C44	2.744	17.625	8.887	C.2	1	RES1	0.000	
29	 C45	3.042	15.758	10.171	C.2	1	RES1	0.000	
30	 C46	4.349	15.630	9.779	C.2	1	RES1	0.000	
31	 C47	4.820	16.575	8.871	C.2	1	RES1	0.000	
32	 C48	6.948	17.408	7.643	C.2	1	RES1	0.000	
33	 C49	6.447	18.061	6.536	C.2	1	RES1	0.000	
34	 C50	7.223	18.941	5.805	C.2	1	RES1	0.000	
35	 C51	8.559	19.202	6.170	C.2	1	RES1	0.000	
36	 C52	9.091	18.524	7.298	C.2	1	RES1	0.000	
37	 C53	8.316	17.625	8.013	C.2	1	RES1	0.000	
38	 C54	10.844	16.767	9.198	C.3	1	RES1	0.000	
39	 C55	8.866	17.900	10.885	C.3	1	RES1	0.000	
@<TRIPOS>BOND
1 1 30 1
2 2 14 1
3 2 37 1
4 2 38 1
5 2 39 1
6 4 10 1
7 4 11 1
8 4 24 1
9 3 5 1
10 5 6 1
11 6 8 ar
12 6 27 ar
13 7 13 1
14 7 15 1
15 7 22 1
16 8 10 ar
17 9 17 1
18 9 21 1
19 10 25 ar
20 11 12 1
21 12 13 1
22 15 17 1
23 19 31 1
24 19 32 1
25 20 28 ar
26 20 31 ar
27 21 22 1
28 13 23 1
29 23 24 1
30 25 26 ar
31 26 27 ar
32 16 27 1
33 16 28 1
34 18 28 ar
35 18 29 ar
36 29 30 ar
37 30 31 ar
38 32 33 ar
39 32 37 ar
40 33 34 ar
41 34 35 ar
42 35 36 ar
43 36 37 ar
@<TRIPOS>SUBSTRUCTURE
1	RES1	1	GROUP	1 ****	RES
