# created with PyMOL 2.5.2
@<TRIPOS>MOLECULE
ALK_6MX8_TargetProtein
39 43 1                 
SMALL
USER_CHARGES
@<TRIPOS>ATOM
1	 CL1	5.092	14.184	10.608	Cl	1	RES1	0.000	
2	  P1	9.107	16.657	9.591	P.3	1	RES1	0.000	
3	  C1	-1.245	20.693	7.007	C.3	1	RES1	0.000	
4	  N1	2.844	23.464	5.546	N.pl3	1	RES1	0.000	
5	  O1	-0.127	20.144	7.701	O.3	1	RES1	0.000	
6	  C2	1.139	20.625	7.397	C.2	1	RES1	0.000	
7	  N2	3.115	26.985	3.041	N.3	1	RES1	0.000	
8	  C3	1.338	21.809	6.633	C.2	1	RES1	0.000	
9	  N3	3.575	29.527	1.650	N.3	1	RES1	0.000	
10	  C4	2.630	22.281	6.312	C.2	1	RES1	0.000	
11	  C5	3.275	24.695	6.207	C.3	1	RES1	0.000	
12	  C6	2.875	25.924	5.367	C.3	1	RES1	0.000	
13	  C7	3.380	25.784	3.925	C.3	1	RES1	0.000	
14	  O7	10.534	16.251	9.373	O.3	1	RES1	0.000	
15	  C8	3.067	28.271	3.789	C.3	1	RES1	0.000	
16	  N8	1.967	18.749	8.616	N.pl3	1	RES1	0.000	
17	  C9	2.685	29.440	2.807	C.3	1	RES1	0.000	
18	  N9	2.200	16.847	9.966	N.2	1	RES1	0.000	
19	 N10	6.086	16.258	8.593	N.pl3	1	RES1	0.000	
20	 N11	4.035	17.493	8.630	N.2	1	RES1	0.000	
21	 C38	3.651	28.228	0.961	C.3	1	RES1	0.000	
22	 C39	4.034	27.089	1.892	C.3	1	RES1	0.000	
23	 C40	2.805	24.508	3.303	C.3	1	RES1	0.000	
24	 C41	3.201	23.290	4.126	C.3	1	RES1	0.000	
25	 C42	3.691	21.548	6.854	C.2	1	RES1	0.000	
26	 C43	3.526	20.391	7.603	C.2	1	RES1	0.000	
27	 C44	2.217	19.924	7.891	C.2	1	RES1	0.000	
28	 C45	2.777	17.678	9.080	C.2	1	RES1	0.000	
29	 C46	2.929	15.809	10.408	C.2	1	RES1	0.000	
30	 C47	4.226	15.545	9.988	C.2	1	RES1	0.000	
31	 C48	4.776	16.460	9.077	C.2	1	RES1	0.000	
32	 C49	6.926	17.070	7.803	C.2	1	RES1	0.000	
33	 C50	6.412	17.693	6.641	C.2	1	RES1	0.000	
34	 C51	7.187	18.524	5.853	C.2	1	RES1	0.000	
35	 C52	8.522	18.756	6.188	C.2	1	RES1	0.000	
36	 C53	9.044	18.158	7.342	C.2	1	RES1	0.000	
37	 C54	8.247	17.331	8.154	C.2	1	RES1	0.000	
38	 C55	9.073	17.913	10.945	C.3	1	RES1	0.000	
39	 C56	8.192	15.273	10.270	C.3	1	RES1	0.000	
@<TRIPOS>BOND
1 1 30 1
2 2 14 1
3 2 37 1
4 2 38 1
5 2 39 1
6 4 10 1
7 4 11 1
8 4 24 1
9 3 5 1
10 5 6 1
11 6 8 ar
12 6 27 ar
13 7 13 1
14 7 15 1
15 7 22 1
16 8 10 ar
17 9 17 1
18 9 21 1
19 10 25 ar
20 11 12 1
21 12 13 1
22 15 17 1
23 19 31 1
24 19 32 1
25 20 28 ar
26 20 31 ar
27 21 22 1
28 13 23 1
29 23 24 1
30 25 26 ar
31 26 27 ar
32 16 27 1
33 16 28 1
34 18 28 ar
35 18 29 ar
36 29 30 ar
37 30 31 ar
38 32 33 ar
39 32 37 ar
40 33 34 ar
41 34 35 ar
42 35 36 ar
43 36 37 ar
@<TRIPOS>SUBSTRUCTURE
1	RES1	1	GROUP	1 ****	RES
