# created with PyMOL 2.5.2
@<TRIPOS>MOLECULE
ALK_6MX8_TargetProtein
39 43 1                 
SMALL
USER_CHARGES
@<TRIPOS>ATOM
1	 CL1	4.945	14.152	10.584	Cl	1	RES1	0.000	
2	  P1	8.885	16.454	9.703	P.3	1	RES1	0.000	
3	  C1	-1.138	20.937	6.991	C.3	1	RES1	0.000	
4	  N1	3.053	23.579	5.583	N.pl3	1	RES1	0.000	
5	  O1	-0.060	20.311	7.673	O.3	1	RES1	0.000	
6	  C2	1.259	20.759	7.361	C.2	1	RES1	0.000	
7	  N2	3.407	27.251	3.341	N.3	1	RES1	0.000	
8	  C3	1.494	21.948	6.651	C.2	1	RES1	0.000	
9	  N3	2.569	29.097	1.225	N.3	1	RES1	0.000	
10	  C4	2.816	22.387	6.335	C.2	1	RES1	0.000	
11	  C5	3.565	24.789	6.292	C.3	1	RES1	0.000	
12	  C6	3.215	26.044	5.498	C.3	1	RES1	0.000	
13	  C7	3.654	25.949	4.073	C.3	1	RES1	0.000	
14	  O7	8.287	15.103	10.080	O.3	1	RES1	0.000	
15	  C8	4.122	27.314	2.054	C.3	1	RES1	0.000	
16	  N8	2.008	18.804	8.571	N.pl3	1	RES1	0.000	
17	  C9	3.966	28.703	1.387	C.3	1	RES1	0.000	
18	  N9	2.165	16.930	9.918	N.2	1	RES1	0.000	
19	 N10	6.068	16.178	8.578	N.pl3	1	RES1	0.000	
20	 N11	4.023	17.503	8.567	N.2	1	RES1	0.000	
21	 C39	1.877	29.026	2.553	C.3	1	RES1	0.000	
22	 C40	1.994	27.636	3.173	C.3	1	RES1	0.000	
23	 C41	3.006	24.714	3.395	C.3	1	RES1	0.000	
24	 C42	3.368	23.431	4.165	C.3	1	RES1	0.000	
25	 C43	3.874	21.586	6.865	C.2	1	RES1	0.000	
26	 C44	3.630	20.426	7.572	C.2	1	RES1	0.000	
27	 C45	2.297	20.005	7.848	C.2	1	RES1	0.000	
28	 C46	2.767	17.726	9.027	C.2	1	RES1	0.000	
29	 C47	2.863	15.865	10.333	C.2	1	RES1	0.000	
30	 C48	4.135	15.568	9.943	C.2	1	RES1	0.000	
31	 C49	4.723	16.445	9.032	C.2	1	RES1	0.000	
32	 C50	6.919	16.986	7.790	C.2	1	RES1	0.000	
33	 C51	6.506	17.586	6.572	C.2	1	RES1	0.000	
34	 C52	7.370	18.377	5.840	C.2	1	RES1	0.000	
35	 C53	8.666	18.590	6.268	C.2	1	RES1	0.000	
36	 C54	9.112	17.990	7.439	C.2	1	RES1	0.000	
37	 C55	8.260	17.185	8.211	C.2	1	RES1	0.000	
38	 C56	10.668	16.301	9.577	C.3	1	RES1	0.000	
39	 C57	8.671	17.628	11.070	C.3	1	RES1	0.000	
@<TRIPOS>BOND
1 1 30 1
2 2 14 1
3 2 37 1
4 2 38 1
5 2 39 1
6 4 10 1
7 4 11 1
8 4 24 1
9 3 5 1
10 5 6 1
11 6 8 ar
12 6 27 ar
13 7 13 1
14 7 15 1
15 7 22 1
16 8 10 ar
17 9 17 1
18 9 21 1
19 10 25 ar
20 11 12 1
21 12 13 1
22 15 17 1
23 19 31 1
24 19 32 1
25 20 28 ar
26 20 31 ar
27 21 22 1
28 13 23 1
29 23 24 1
30 25 26 ar
31 26 27 ar
32 16 27 1
33 16 28 1
34 18 28 ar
35 18 29 ar
36 29 30 ar
37 30 31 ar
38 32 33 ar
39 32 37 ar
40 33 34 ar
41 34 35 ar
42 35 36 ar
43 36 37 ar
@<TRIPOS>SUBSTRUCTURE
1	RES1	1	GROUP	1 ****	RES
