# created with PyMOL 2.5.2
@<TRIPOS>MOLECULE
ALK_6MX8_TargetProtein
39 43 1                 
SMALL
USER_CHARGES
@<TRIPOS>ATOM
1	 CL1	5.717	14.877	10.181	Cl	1	RES1	0.000	
2	  P1	9.046	17.529	8.880	P.3	1	RES1	0.000	
3	  C1	-1.860	20.692	7.075	C.3	1	RES1	0.000	
4	  N1	1.984	23.747	5.746	N.pl3	1	RES1	0.000	
5	  O1	-0.730	20.129	7.726	O.3	1	RES1	0.000	
6	  C2	0.508	20.716	7.424	C.2	1	RES1	0.000	
7	  N2	3.906	26.178	3.982	N.3	1	RES1	0.000	
8	  C3	0.650	21.938	6.802	C.2	1	RES1	0.000	
9	  N3	6.300	24.740	2.977	N.3	1	RES1	0.000	
10	  C4	1.901	22.459	6.429	C.2	1	RES1	0.000	
11	  C5	2.045	23.739	4.276	C.3	1	RES1	0.000	
12	  C6	1.618	25.104	3.732	C.3	1	RES1	0.000	
13	  C7	2.449	26.260	4.350	C.3	1	RES1	0.000	
14	  O7	8.679	16.072	9.104	O.3	1	RES1	0.000	
15	  C8	4.688	25.234	4.807	C.3	1	RES1	0.000	
16	  N8	1.662	18.714	8.459	N.pl3	1	RES1	0.000	
17	  C9	6.155	25.081	4.412	C.3	1	RES1	0.000	
18	  N9	2.340	16.925	9.789	N.2	1	RES1	0.000	
19	 N10	6.151	17.030	8.046	N.pl3	1	RES1	0.000	
20	 N11	3.894	17.863	8.261	N.2	1	RES1	0.000	
21	 C40	5.578	25.726	2.153	C.3	1	RES1	0.000	
22	 C41	4.107	25.868	2.550	C.3	1	RES1	0.000	
23	 C42	2.195	26.172	5.854	C.3	1	RES1	0.000	
24	 C43	2.621	24.869	6.456	C.3	1	RES1	0.000	
25	 C44	3.015	21.670	6.707	C.2	1	RES1	0.000	
26	 C45	2.894	20.449	7.367	C.2	1	RES1	0.000	
27	 C46	1.678	19.934	7.736	C.2	1	RES1	0.000	
28	 C47	2.682	17.826	8.855	C.2	1	RES1	0.000	
29	 C48	3.293	16.046	10.162	C.2	1	RES1	0.000	
30	 C49	4.562	16.037	9.626	C.2	1	RES1	0.000	
31	 C50	4.856	16.994	8.638	C.2	1	RES1	0.000	
32	 C51	6.772	18.058	7.322	C.2	1	RES1	0.000	
33	 C52	6.148	18.797	6.310	C.2	1	RES1	0.000	
34	 C53	6.759	19.812	5.610	C.2	1	RES1	0.000	
35	 C54	8.098	20.128	5.907	C.2	1	RES1	0.000	
36	 C55	8.758	19.425	6.908	C.2	1	RES1	0.000	
37	 C56	8.123	18.382	7.613	C.2	1	RES1	0.000	
38	 C57	10.815	17.602	8.471	C.3	1	RES1	0.000	
39	 C58	8.947	18.443	10.431	C.3	1	RES1	0.000	
@<TRIPOS>BOND
1 1 30 1
2 2 14 1
3 2 37 1
4 2 38 1
5 2 39 1
6 4 10 1
7 4 11 1
8 4 24 1
9 3 5 1
10 5 6 1
11 6 8 ar
12 6 27 ar
13 7 13 1
14 7 15 1
15 7 22 1
16 8 10 ar
17 9 17 1
18 9 21 1
19 10 25 ar
20 11 12 1
21 12 13 1
22 15 17 1
23 19 31 1
24 19 32 1
25 20 28 ar
26 20 31 ar
27 21 22 1
28 13 23 1
29 23 24 1
30 25 26 ar
31 26 27 ar
32 16 27 1
33 16 28 1
34 18 28 ar
35 18 29 ar
36 29 30 ar
37 30 31 ar
38 32 33 ar
39 32 37 ar
40 33 34 ar
41 34 35 ar
42 35 36 ar
43 36 37 ar
@<TRIPOS>SUBSTRUCTURE
1	RES1	1	GROUP	1 ****	RES
