# created with PyMOL 2.5.2
@<TRIPOS>MOLECULE
CRBN_6H0G_TargetProtein
20 22 1                 
SMALL
USER_CHARGES
@<TRIPOS>ATOM
1	  N3	1.983	54.439	-85.576	N.pl3	1	RES1	0.000	
2	  N4	1.741	51.729	-82.123	N.2	1	RES1	0.000	
3	  N5	1.994	50.126	-78.841	N.pl3	1	RES1	0.000	
4	  O5	2.849	53.704	-82.836	O.2	1	RES1	0.000	
5	  O6	3.671	49.742	-77.358	O.2	1	RES1	0.000	
6	  O7	0.196	50.458	-80.198	O.2	1	RES1	0.000	
7	  O8	0.434	49.802	-82.297	O.2	1	RES1	0.000	
8	 C21	1.335	53.225	-85.447	C.2	1	RES1	0.000	
9	 C22	0.507	52.698	-86.459	C.2	1	RES1	0.000	
10	 C23	-0.230	51.517	-86.301	C.2	1	RES1	0.000	
11	 C24	-0.147	50.807	-85.083	C.2	1	RES1	0.000	
12	 C25	0.650	51.339	-84.085	C.2	1	RES1	0.000	
13	 C26	1.362	52.495	-84.243	C.2	1	RES1	0.000	
14	 C27	2.080	52.751	-83.011	C.2	1	RES1	0.000	
15	 C28	2.264	51.603	-80.776	C.3	1	RES1	0.000	
16	 C29	3.731	51.215	-80.664	C.3	1	RES1	0.000	
17	 C30	4.168	51.190	-79.202	C.3	1	RES1	0.000	
18	 C31	3.284	50.269	-78.378	C.2	1	RES1	0.000	
19	 C32	1.374	50.661	-79.974	C.2	1	RES1	0.000	
20	 C33	0.883	50.821	-82.714	C.2	1	RES1	0.000	
@<TRIPOS>BOND
1 1 8 1
2 8 9 ar
3 8 13 ar
4 9 10 ar
5 10 11 ar
6 11 12 ar
7 12 13 ar
8 12 20 ar
9 13 14 ar
10 2 14 ar
11 4 14 2
12 2 15 1
13 15 16 1
14 15 19 1
15 16 17 1
16 17 18 1
17 3 18 1
18 5 18 2
19 3 19 1
20 6 19 2
21 2 20 ar
22 7 20 2
@<TRIPOS>SUBSTRUCTURE
1	RES1	1	GROUP	1 ****	RES
