# created with PyMOL 2.5.2
@<TRIPOS>MOLECULE
ALK_6MX8_TargetProtein
39 43 1                 
SMALL
USER_CHARGES
@<TRIPOS>ATOM
1	 CL1	5.732	14.667	10.732	Cl	1	RES1	0.000	
2	  P1	8.917	17.324	8.995	P.3	1	RES1	0.000	
3	  C1	-1.573	20.265	7.164	C.3	1	RES1	0.000	
4	  N1	2.317	23.242	5.487	N.pl3	1	RES1	0.000	
5	  O1	-0.419	19.815	7.859	O.3	1	RES1	0.000	
6	  C2	0.842	20.393	7.489	C.2	1	RES1	0.000	
7	  N2	3.415	26.648	3.321	N.3	1	RES1	0.000	
8	  C3	0.922	21.529	6.681	C.2	1	RES1	0.000	
9	  N3	6.039	27.860	2.670	N.3	1	RES1	0.000	
10	  C4	2.192	22.044	6.340	C.2	1	RES1	0.000	
11	  C5	2.050	23.138	4.047	C.3	1	RES1	0.000	
12	  C6	2.836	24.247	3.325	C.3	1	RES1	0.000	
13	  C7	2.441	25.623	3.785	C.3	1	RES1	0.000	
14	  O7	8.524	15.892	9.259	O.3	1	RES1	0.000	
15	  C8	4.337	27.098	4.354	C.3	1	RES1	0.000	
16	  N8	1.797	18.553	8.771	N.pl3	1	RES1	0.000	
17	  C9	5.274	28.228	3.858	C.3	1	RES1	0.000	
18	  N9	2.345	16.675	10.162	N.2	1	RES1	0.000	
19	 N10	6.073	16.797	8.305	N.pl3	1	RES1	0.000	
20	 N11	3.908	17.587	8.630	N.2	1	RES1	0.000	
21	 C41	5.098	27.423	1.612	C.3	1	RES1	0.000	
22	 C42	4.186	26.244	2.099	C.3	1	RES1	0.000	
23	 C43	2.081	25.674	5.295	C.3	1	RES1	0.000	
24	 C44	2.685	24.538	6.079	C.3	1	RES1	0.000	
25	 C45	3.303	21.391	6.814	C.2	1	RES1	0.000	
26	 C46	3.201	20.247	7.605	C.2	1	RES1	0.000	
27	 C47	1.965	19.715	7.964	C.2	1	RES1	0.000	
28	 C48	2.698	17.573	9.254	C.2	1	RES1	0.000	
29	 C49	3.284	15.805	10.557	C.2	1	RES1	0.000	
30	 C50	4.557	15.758	10.030	C.2	1	RES1	0.000	
31	 C51	4.832	16.707	9.012	C.2	1	RES1	0.000	
32	 C52	6.655	17.816	7.510	C.2	1	RES1	0.000	
33	 C53	5.934	18.491	6.532	C.2	1	RES1	0.000	
34	 C54	6.526	19.487	5.762	C.2	1	RES1	0.000	
35	 C55	7.869	19.824	5.978	C.2	1	RES1	0.000	
36	 C56	8.585	19.161	6.948	C.2	1	RES1	0.000	
37	 C57	8.001	18.166	7.736	C.2	1	RES1	0.000	
38	 C58	10.673	17.372	8.546	C.3	1	RES1	0.000	
39	 C59	8.904	18.250	10.575	C.3	1	RES1	0.000	
@<TRIPOS>BOND
1 1 30 1
2 2 14 1
3 2 37 1
4 2 38 1
5 2 39 1
6 4 10 1
7 4 11 1
8 4 24 1
9 3 5 1
10 5 6 1
11 6 8 ar
12 6 27 ar
13 7 13 1
14 7 15 1
15 7 22 1
16 8 10 ar
17 9 17 1
18 9 21 1
19 10 25 ar
20 11 12 1
21 12 13 1
22 15 17 1
23 19 31 1
24 19 32 1
25 20 28 ar
26 20 31 ar
27 21 22 1
28 13 23 1
29 23 24 1
30 25 26 ar
31 26 27 ar
32 16 27 1
33 16 28 1
34 18 28 ar
35 18 29 ar
36 29 30 ar
37 30 31 ar
38 32 33 ar
39 32 37 ar
40 33 34 ar
41 34 35 ar
42 35 36 ar
43 36 37 ar
@<TRIPOS>SUBSTRUCTURE
1	RES1	1	GROUP	1 ****	RES
