# created with PyMOL 2.5.2
@<TRIPOS>MOLECULE
ALK_6MX8_TargetProtein
39 43 1                 
SMALL
USER_CHARGES
@<TRIPOS>ATOM
1	 CL1	4.935	14.126	10.429	Cl	1	RES1	0.000	
2	  P1	8.817	16.514	9.661	P.3	1	RES1	0.000	
3	  C1	-1.117	21.151	7.212	C.3	1	RES1	0.000	
4	  N1	3.129	23.731	5.821	N.pl3	1	RES1	0.000	
5	  O1	-0.034	20.488	7.836	O.3	1	RES1	0.000	
6	  C2	1.230	20.913	7.472	C.2	1	RES1	0.000	
7	  N2	3.358	27.259	3.481	N.3	1	RES1	0.000	
8	  C3	1.545	22.115	6.807	C.2	1	RES1	0.000	
9	  N3	2.484	28.299	0.886	N.3	1	RES1	0.000	
10	  C4	2.820	22.500	6.460	C.2	1	RES1	0.000	
11	  C5	3.299	24.988	6.580	C.3	1	RES1	0.000	
12	  C6	2.972	26.184	5.713	C.3	1	RES1	0.000	
13	  C7	3.894	26.261	4.466	C.3	1	RES1	0.000	
14	  O7	8.233	15.181	10.052	O.3	1	RES1	0.000	
15	  C8	4.329	27.544	2.410	C.3	1	RES1	0.000	
16	  N8	1.974	18.792	8.453	N.pl3	1	RES1	0.000	
17	  C9	3.784	28.645	1.472	C.3	1	RES1	0.000	
18	  N9	2.127	16.887	9.723	N.2	1	RES1	0.000	
19	 N10	6.022	16.191	8.466	N.pl3	1	RES1	0.000	
20	 N11	4.026	17.467	8.442	N.2	1	RES1	0.000	
21	 C42	1.530	27.976	1.969	C.3	1	RES1	0.000	
22	 C43	2.029	26.869	2.905	C.3	1	RES1	0.000	
23	 C44	4.238	24.862	3.919	C.3	1	RES1	0.000	
24	 C45	3.258	23.784	4.329	C.3	1	RES1	0.000	
25	 C46	3.876	21.601	6.798	C.2	1	RES1	0.000	
26	 C47	3.597	20.420	7.449	C.2	1	RES1	0.000	
27	 C48	2.276	20.022	7.781	C.2	1	RES1	0.000	
28	 C49	2.743	17.700	8.883	C.2	1	RES1	0.000	
29	 C50	2.819	15.817	10.191	C.2	1	RES1	0.000	
30	 C51	4.124	15.528	9.819	C.2	1	RES1	0.000	
31	 C52	4.704	16.423	8.903	C.2	1	RES1	0.000	
32	 C53	6.897	17.007	7.701	C.2	1	RES1	0.000	
33	 C54	6.498	17.645	6.512	C.2	1	RES1	0.000	
34	 C55	7.359	18.422	5.768	C.2	1	RES1	0.000	
35	 C56	8.681	18.632	6.219	C.2	1	RES1	0.000	
36	 C57	9.087	18.035	7.400	C.2	1	RES1	0.000	
37	 C58	8.235	17.232	8.160	C.2	1	RES1	0.000	
38	 C59	10.628	16.373	9.556	C.3	1	RES1	0.000	
39	 C60	8.601	17.683	11.034	C.3	1	RES1	0.000	
@<TRIPOS>BOND
1 1 30 1
2 2 14 1
3 2 37 1
4 2 38 1
5 2 39 1
6 4 10 1
7 4 11 1
8 4 24 1
9 3 5 1
10 5 6 1
11 6 8 ar
12 6 27 ar
13 7 13 1
14 7 15 1
15 7 22 1
16 8 10 ar
17 9 17 1
18 9 21 1
19 10 25 ar
20 11 12 1
21 12 13 1
22 15 17 1
23 19 31 1
24 19 32 1
25 20 28 ar
26 20 31 ar
27 21 22 1
28 13 23 1
29 23 24 1
30 25 26 ar
31 26 27 ar
32 16 27 1
33 16 28 1
34 18 28 ar
35 18 29 ar
36 29 30 ar
37 30 31 ar
38 32 33 ar
39 32 37 ar
40 33 34 ar
41 34 35 ar
42 35 36 ar
43 36 37 ar
@<TRIPOS>SUBSTRUCTURE
1	RES1	1	GROUP	1 ****	RES
