# created with PyMOL 2.5.2
@<TRIPOS>MOLECULE
ALK_6MX8_TargetProtein
39 43 1                 
SMALL
USER_CHARGES
@<TRIPOS>ATOM
1	 CL1	5.106	14.259	10.711	Cl	1	RES1	0.000	
2	  P1	8.904	16.549	9.665	P.3	1	RES1	0.000	
3	  C1	-1.247	20.789	7.044	C.3	1	RES1	0.000	
4	  N1	2.878	23.493	5.546	N.pl3	1	RES1	0.000	
5	  O1	-0.141	20.195	7.728	O.3	1	RES1	0.000	
6	  C2	1.144	20.682	7.375	C.2	1	RES1	0.000	
7	  N2	3.121	27.008	3.075	N.3	1	RES1	0.000	
8	  C3	1.375	21.858	6.623	C.2	1	RES1	0.000	
9	  N3	2.870	29.245	1.397	N.3	1	RES1	0.000	
10	  C4	2.649	22.316	6.307	C.2	1	RES1	0.000	
11	  C5	3.329	24.720	6.203	C.3	1	RES1	0.000	
12	  C6	2.925	25.953	5.395	C.3	1	RES1	0.000	
13	  C7	3.410	25.835	3.941	C.3	1	RES1	0.000	
14	  C8	3.008	28.305	3.751	C.3	1	RES1	0.000	
15	  N8	1.960	18.758	8.579	N.pl3	1	RES1	0.000	
16	  C9	2.461	29.390	2.801	C.3	1	RES1	0.000	
17	  N9	2.215	16.918	9.995	N.2	1	RES1	0.000	
18	  O9	8.357	15.184	10.069	O.3	1	RES1	0.000	
19	 N10	6.087	16.216	8.549	N.pl3	1	RES1	0.000	
20	 N11	4.015	17.469	8.571	N.2	1	RES1	0.000	
21	 C40	4.095	28.518	1.272	C.3	1	RES1	0.000	
22	 C41	4.031	27.097	1.912	C.3	1	RES1	0.000	
23	 C42	2.838	24.561	3.312	C.3	1	RES1	0.000	
24	 C43	3.236	23.327	4.106	C.3	1	RES1	0.000	
25	 C44	3.726	21.502	6.780	C.2	1	RES1	0.000	
26	 C45	3.527	20.362	7.502	C.2	1	RES1	0.000	
27	 C46	2.246	19.894	7.845	C.2	1	RES1	0.000	
28	 C47	2.768	17.660	9.048	C.2	1	RES1	0.000	
29	 C48	2.938	15.901	10.468	C.2	1	RES1	0.000	
30	 C49	4.245	15.595	10.024	C.2	1	RES1	0.000	
31	 C50	4.770	16.433	9.009	C.2	1	RES1	0.000	
32	 C51	6.945	17.024	7.766	C.2	1	RES1	0.000	
33	 C52	6.491	17.642	6.586	C.2	1	RES1	0.000	
34	 C53	7.312	18.444	5.814	C.2	1	RES1	0.000	
35	 C54	8.645	18.666	6.219	C.2	1	RES1	0.000	
36	 C55	9.095	18.079	7.397	C.2	1	RES1	0.000	
37	 C56	8.256	17.252	8.169	C.2	1	RES1	0.000	
38	 C57	10.708	16.443	9.540	C.3	1	RES1	0.000	
39	 C58	8.708	17.724	11.041	C.3	1	RES1	0.000	
@<TRIPOS>BOND
1 1 30 1
2 2 18 1
3 2 37 1
4 2 38 1
5 2 39 1
6 4 10 1
7 4 11 1
8 4 24 1
9 3 5 1
10 5 6 1
11 6 8 ar
12 6 27 ar
13 7 13 1
14 7 14 1
15 7 22 1
16 8 10 ar
17 9 16 1
18 9 21 1
19 10 25 ar
20 11 12 1
21 12 13 1
22 14 16 1
23 19 31 1
24 19 32 1
25 20 28 ar
26 20 31 ar
27 21 22 1
28 13 23 1
29 23 24 1
30 25 26 ar
31 26 27 ar
32 15 27 1
33 15 28 1
34 17 28 ar
35 17 29 ar
36 29 30 ar
37 30 31 ar
38 32 33 ar
39 32 37 ar
40 33 34 ar
41 34 35 ar
42 35 36 ar
43 36 37 ar
@<TRIPOS>SUBSTRUCTURE
1	RES1	1	GROUP	1 ****	RES
