# created with PyMOL 2.5.2
@<TRIPOS>MOLECULE
ALK_6MX8_TargetProtein
39 43 1                 
SMALL
USER_CHARGES
@<TRIPOS>ATOM
1	 CL1	5.480	14.359	10.470	Cl	1	RES1	0.000	
2	  P1	8.994	16.961	9.371	P.3	1	RES1	0.000	
3	  C1	-1.472	20.401	6.922	C.3	1	RES1	0.000	
4	  N1	2.542	23.478	5.812	N.pl3	1	RES1	0.000	
5	  O1	-0.338	19.855	7.625	O.3	1	RES1	0.000	
6	  C2	0.918	20.453	7.394	C.2	1	RES1	0.000	
7	  N2	3.622	26.687	3.374	N.3	1	RES1	0.000	
8	  C3	1.104	21.667	6.740	C.2	1	RES1	0.000	
9	  N3	4.485	28.645	1.318	N.3	1	RES1	0.000	
10	  C4	2.353	22.235	6.526	C.2	1	RES1	0.000	
11	  C5	2.429	23.530	4.349	C.3	1	RES1	0.000	
12	  C6	1.912	24.854	3.877	C.3	1	RES1	0.000	
13	  C7	2.754	26.040	4.396	C.3	1	RES1	0.000	
14	  C8	3.937	28.112	3.709	C.3	1	RES1	0.000	
15	  N8	1.815	18.530	8.569	N.pl3	1	RES1	0.000	
16	  C9	4.934	28.722	2.724	C.3	1	RES1	0.000	
17	  N9	2.233	16.642	9.959	N.2	1	RES1	0.000	
18	 N10	6.103	16.509	8.400	N.pl3	1	RES1	0.000	
19	 O10	8.500	15.568	9.687	O.3	1	RES1	0.000	
20	 N11	3.917	17.469	8.532	N.2	1	RES1	0.000	
21	 C42	4.193	27.229	0.997	C.3	1	RES1	0.000	
22	 C43	3.193	26.585	1.972	C.3	1	RES1	0.000	
23	 C44	3.604	25.669	5.614	C.3	1	RES1	0.000	
24	 C45	2.856	24.717	6.531	C.3	1	RES1	0.000	
25	 C46	3.451	21.483	7.019	C.2	1	RES1	0.000	
26	 C47	3.282	20.292	7.707	C.2	1	RES1	0.000	
27	 C48	2.033	19.747	7.893	C.2	1	RES1	0.000	
28	 C49	2.656	17.508	9.051	C.2	1	RES1	0.000	
29	 C50	3.125	15.702	10.372	C.2	1	RES1	0.000	
30	 C51	4.423	15.602	9.885	C.2	1	RES1	0.000	
31	 C52	4.799	16.527	8.913	C.2	1	RES1	0.000	
32	 C53	6.832	17.480	7.648	C.2	1	RES1	0.000	
33	 C54	6.282	18.167	6.569	C.2	1	RES1	0.000	
34	 C55	7.016	19.095	5.863	C.2	1	RES1	0.000	
35	 C56	8.317	19.366	6.185	C.2	1	RES1	0.000	
36	 C57	8.892	18.729	7.266	C.2	1	RES1	0.000	
37	 C58	8.180	17.766	7.999	C.2	1	RES1	0.000	
38	 C59	8.866	17.998	10.845	C.3	1	RES1	0.000	
39	 C60	10.785	16.884	9.054	C.3	1	RES1	0.000	
@<TRIPOS>BOND
1 1 30 1
2 2 19 1
3 2 37 1
4 2 38 1
5 2 39 1
6 4 10 1
7 4 11 1
8 4 24 1
9 3 5 1
10 5 6 1
11 6 8 ar
12 6 27 ar
13 7 13 1
14 7 14 1
15 7 22 1
16 8 10 ar
17 9 16 1
18 9 21 1
19 10 25 ar
20 11 12 1
21 12 13 1
22 14 16 1
23 18 31 1
24 18 32 1
25 20 28 ar
26 20 31 ar
27 21 22 1
28 13 23 1
29 23 24 1
30 25 26 ar
31 26 27 ar
32 15 27 1
33 15 28 1
34 17 28 ar
35 17 29 ar
36 29 30 ar
37 30 31 ar
38 32 33 ar
39 32 37 ar
40 33 34 ar
41 34 35 ar
42 35 36 ar
43 36 37 ar
@<TRIPOS>SUBSTRUCTURE
1	RES1	1	GROUP	1 ****	RES
