# created with PyMOL 2.5.2
@<TRIPOS>MOLECULE
ALK_6MX8_TargetProtein
39 43 1                 
SMALL
USER_CHARGES
@<TRIPOS>ATOM
1	 CL1	5.356	14.334	10.387	Cl	1	RES1	0.000	
2	  P1	9.009	16.851	9.454	P.3	1	RES1	0.000	
3	  C1	-1.494	20.498	7.032	C.3	1	RES1	0.000	
4	  N1	2.398	23.696	5.909	N.pl3	1	RES1	0.000	
5	  O1	-0.320	19.970	7.656	O.3	1	RES1	0.000	
6	  C2	0.890	20.586	7.397	C.2	1	RES1	0.000	
7	  N2	3.283	27.115	3.547	N.3	1	RES1	0.000	
8	  C3	1.029	21.829	6.783	C.2	1	RES1	0.000	
9	  N3	4.812	27.579	1.078	N.3	1	RES1	0.000	
10	  C4	2.275	22.438	6.547	C.2	1	RES1	0.000	
11	  C5	2.258	23.841	4.444	C.3	1	RES1	0.000	
12	  C6	1.718	25.211	4.092	C.3	1	RES1	0.000	
13	  C7	2.566	26.376	4.635	C.3	1	RES1	0.000	
14	  C8	4.721	26.754	3.436	C.3	1	RES1	0.000	
15	  N8	1.893	18.612	8.466	N.pl3	1	RES1	0.000	
16	  C9	5.441	27.633	2.406	C.3	1	RES1	0.000	
17	  N9	2.271	16.761	9.781	N.2	1	RES1	0.000	
18	 N10	6.165	16.450	8.359	N.pl3	1	RES1	0.000	
19	 N11	3.989	17.521	8.387	N.2	1	RES1	0.000	
20	 O11	8.433	15.502	9.822	O.3	1	RES1	0.000	
21	 C44	3.396	27.925	1.182	C.3	1	RES1	0.000	
22	 C45	2.642	27.049	2.200	C.3	1	RES1	0.000	
23	 C46	3.463	25.931	5.819	C.3	1	RES1	0.000	
24	 C47	2.739	24.926	6.689	C.3	1	RES1	0.000	
25	 C48	3.403	21.714	6.960	C.2	1	RES1	0.000	
26	 C49	3.283	20.459	7.580	C.2	1	RES1	0.000	
27	 C50	2.040	19.876	7.810	C.2	1	RES1	0.000	
28	 C51	2.740	17.618	8.875	C.2	1	RES1	0.000	
29	 C52	3.075	15.772	10.212	C.2	1	RES1	0.000	
30	 C53	4.370	15.585	9.763	C.2	1	RES1	0.000	
31	 C54	4.824	16.538	8.808	C.2	1	RES1	0.000	
32	 C55	6.953	17.362	7.633	C.2	1	RES1	0.000	
33	 C56	6.478	18.036	6.517	C.2	1	RES1	0.000	
34	 C57	7.285	18.933	5.784	C.2	1	RES1	0.000	
35	 C58	8.565	19.184	6.198	C.2	1	RES1	0.000	
36	 C59	9.079	18.522	7.306	C.2	1	RES1	0.000	
37	 C60	8.283	17.630	8.051	C.2	1	RES1	0.000	
38	 C61	8.894	17.949	10.907	C.3	1	RES1	0.000	
39	 C62	10.801	16.685	9.218	C.3	1	RES1	0.000	
@<TRIPOS>BOND
1 1 30 1
2 2 20 1
3 2 37 1
4 2 38 1
5 2 39 1
6 4 10 1
7 4 11 1
8 4 24 1
9 3 5 1
10 5 6 1
11 6 8 ar
12 6 27 ar
13 7 13 1
14 7 14 1
15 7 22 1
16 8 10 ar
17 9 16 1
18 9 21 1
19 10 25 ar
20 11 12 1
21 12 13 1
22 14 16 1
23 18 31 1
24 18 32 1
25 19 28 ar
26 19 31 ar
27 21 22 1
28 13 23 1
29 23 24 1
30 25 26 ar
31 26 27 ar
32 15 27 1
33 15 28 1
34 17 28 ar
35 17 29 ar
36 29 30 ar
37 30 31 ar
38 32 33 ar
39 32 37 ar
40 33 34 ar
41 34 35 ar
42 35 36 ar
43 36 37 ar
@<TRIPOS>SUBSTRUCTURE
1	RES1	1	GROUP	1 ****	RES
