# created with PyMOL 2.5.2
@<TRIPOS>MOLECULE
ALK_6MX8_TargetProtein
39 43 1                 
SMALL
USER_CHARGES
@<TRIPOS>ATOM
1	 CL1	5.737	14.720	10.324	Cl	1	RES1	0.000	
2	  P1	9.003	17.445	8.957	P.3	1	RES1	0.000	
3	  C1	-1.751	20.460	7.275	C.3	1	RES1	0.000	
4	  N1	2.107	23.513	5.639	N.pl3	1	RES1	0.000	
5	  O1	-0.534	19.915	7.862	O.3	1	RES1	0.000	
6	  C2	0.692	20.533	7.438	C.2	1	RES1	0.000	
7	  N2	3.599	26.438	3.591	N.3	1	RES1	0.000	
8	  C3	0.769	21.731	6.748	C.2	1	RES1	0.000	
9	  N3	6.410	26.243	2.816	N.3	1	RES1	0.000	
10	  C4	1.999	22.282	6.391	C.2	1	RES1	0.000	
11	  C5	2.324	23.448	4.190	C.3	1	RES1	0.000	
12	  C6	1.788	24.682	3.484	C.3	1	RES1	0.000	
13	  C7	2.257	26.026	4.095	C.3	1	RES1	0.000	
14	  C8	4.645	26.102	4.579	C.3	1	RES1	0.000	
15	  N8	1.708	18.606	8.560	N.pl3	1	RES1	0.000	
16	  C9	5.992	26.688	4.142	C.3	1	RES1	0.000	
17	  N9	2.324	16.758	9.967	N.2	1	RES1	0.000	
18	 N10	6.107	16.917	8.203	N.pl3	1	RES1	0.000	
19	 N11	3.841	17.715	8.430	N.2	1	RES1	0.000	
20	 O12	8.600	16.032	9.300	O.3	1	RES1	0.000	
21	 C46	5.356	26.590	1.835	C.3	1	RES1	0.000	
22	 C47	3.996	25.993	2.245	C.3	1	RES1	0.000	
23	 C48	2.062	25.995	5.634	C.3	1	RES1	0.000	
24	 C49	2.552	24.726	6.341	C.3	1	RES1	0.000	
25	 C50	3.149	21.583	6.748	C.2	1	RES1	0.000	
26	 C51	3.080	20.389	7.473	C.2	1	RES1	0.000	
27	 C52	1.846	19.834	7.825	C.2	1	RES1	0.000	
28	 C53	2.613	17.671	9.015	C.2	1	RES1	0.000	
29	 C54	3.294	15.887	10.327	C.2	1	RES1	0.000	
30	 C55	4.565	15.881	9.785	C.2	1	RES1	0.000	
31	 C56	4.811	16.863	8.819	C.2	1	RES1	0.000	
32	 C57	6.741	17.927	7.445	C.2	1	RES1	0.000	
33	 C58	6.079	18.628	6.419	C.2	1	RES1	0.000	
34	 C59	6.677	19.628	5.686	C.2	1	RES1	0.000	
35	 C60	7.998	19.930	5.959	C.2	1	RES1	0.000	
36	 C61	8.709	19.264	6.923	C.2	1	RES1	0.000	
37	 C62	8.076	18.279	7.709	C.2	1	RES1	0.000	
38	 C63	9.003	18.480	10.473	C.3	1	RES1	0.000	
39	 C64	10.783	17.464	8.484	C.3	1	RES1	0.000	
@<TRIPOS>BOND
1 1 30 1
2 2 20 1
3 2 37 1
4 2 38 1
5 2 39 1
6 4 10 1
7 4 11 1
8 4 24 1
9 3 5 1
10 5 6 1
11 6 8 ar
12 6 27 ar
13 7 13 1
14 7 14 1
15 7 22 1
16 8 10 ar
17 9 16 1
18 9 21 1
19 10 25 ar
20 11 12 1
21 12 13 1
22 14 16 1
23 18 31 1
24 18 32 1
25 19 28 ar
26 19 31 ar
27 21 22 1
28 13 23 1
29 23 24 1
30 25 26 ar
31 26 27 ar
32 15 27 1
33 15 28 1
34 17 28 ar
35 17 29 ar
36 29 30 ar
37 30 31 ar
38 32 33 ar
39 32 37 ar
40 33 34 ar
41 34 35 ar
42 35 36 ar
43 36 37 ar
@<TRIPOS>SUBSTRUCTURE
1	RES1	1	GROUP	1 ****	RES
