# created with PyMOL 2.5.2
@<TRIPOS>MOLECULE
EGFR_5GMP_TargetProtein
40 44 1                 
SMALL
USER_CHARGES
@<TRIPOS>ATOM
1	  C1	6.665	-51.038	125.549	C.3	1	RES1	0.000	
2	  N1	4.197	-49.869	124.575	N.pl3	1	RES1	0.000	
3	  O1	4.404	-48.517	126.483	O.2	1	RES1	0.000	
4	  C2	6.302	-49.752	125.723	C.3	1	RES1	0.000	
5	  N2	0.229	-51.481	122.266	N.2	1	RES1	0.000	
6	  O2	1.110	-50.787	120.229	O.2	1	RES1	0.000	
7	  C3	4.862	-49.321	125.656	C.2	1	RES1	0.000	
8	  N3	-2.181	-54.151	124.381	N.2	1	RES1	0.000	
9	  O3	2.134	-45.749	133.305	O.2	1	RES1	0.000	
10	  C4	2.845	-49.642	124.216	C.2	1	RES1	0.000	
11	  N4	-1.727	-53.074	126.366	N.pl3	1	RES1	0.000	
12	  C5	2.127	-48.491	124.590	C.2	1	RES1	0.000	
13	  N5	-0.019	-49.366	130.405	N.pl3	1	RES1	0.000	
14	  C6	0.795	-48.350	124.191	C.2	1	RES1	0.000	
15	  N6	0.867	-47.469	132.461	N.pl3	1	RES1	0.000	
16	  C7	0.187	-49.325	123.425	C.2	1	RES1	0.000	
17	  C8	0.883	-50.484	123.049	C.2	1	RES1	0.000	
18	  O8	-3.279	-52.644	128.555	O.3	1	RES1	0.000	
19	  C9	0.422	-51.533	120.887	C.2	1	RES1	0.000	
20	 C10	-0.301	-52.642	120.181	C.2	1	RES1	0.000	
21	 C11	-1.078	-53.515	120.803	C.2	1	RES1	0.000	
22	 N11	-0.717	-52.301	124.338	N.2	1	RES1	0.000	
23	 C12	-1.804	-54.628	120.059	C.3	1	RES1	0.000	
24	 C13	-1.254	-53.412	122.263	C.2	1	RES1	0.000	
25	 C14	-2.030	-54.279	123.049	C.2	1	RES1	0.000	
26	 C15	-1.500	-53.163	125.006	C.2	1	RES1	0.000	
27	 C16	-1.248	-52.157	127.383	C.2	1	RES1	0.000	
28	 C17	-0.013	-51.489	127.300	C.2	1	RES1	0.000	
29	 C18	0.380	-50.589	128.250	C.2	1	RES1	0.000	
30	 C19	-0.412	-50.311	129.391	C.2	1	RES1	0.000	
31	 C20	1.418	-48.933	130.489	C.3	1	RES1	0.000	
32	 C21	1.512	-47.571	131.168	C.3	1	RES1	0.000	
33	 C22	1.242	-46.566	133.402	C.2	1	RES1	0.000	
34	 C56	-0.257	-48.418	132.676	C.3	1	RES1	0.000	
35	 C57	-0.970	-48.853	131.384	C.3	1	RES1	0.000	
36	 C58	-1.630	-50.996	129.500	C.2	1	RES1	0.000	
37	 C59	-2.057	-51.912	128.508	C.2	1	RES1	0.000	
38	 C60	-4.004	-52.575	129.793	C.3	1	RES1	0.000	
39	 C61	-0.622	-52.408	122.993	C.2	1	RES1	0.000	
40	 C62	2.200	-50.650	123.477	C.2	1	RES1	0.000	
@<TRIPOS>BOND
1 1 4 1
2 2 7 1
3 2 10 1
4 3 7 2
5 4 7 1
6 5 17 1
7 5 19 ar
8 5 39 ar
9 6 19 2
10 10 12 ar
11 10 40 ar
12 12 14 ar
13 13 35 1
14 14 16 ar
15 16 17 ar
16 19 20 ar
17 20 21 ar
18 21 23 1
19 21 24 ar
20 22 26 ar
21 22 39 ar
22 24 25 ar
23 24 39 ar
24 8 25 ar
25 8 26 ar
26 11 26 1
27 11 27 1
28 27 28 ar
29 27 37 ar
30 28 29 ar
31 29 30 ar
32 13 30 1
33 30 36 ar
34 13 31 1
35 31 32 1
36 15 32 1
37 9 33 2
38 15 33 1
39 15 34 1
40 34 35 1
41 36 37 ar
42 18 37 1
43 18 38 1
44 17 40 ar
@<TRIPOS>SUBSTRUCTURE
1	RES1	1	GROUP	1 ****	RES
