# created with PyMOL 2.5.2
@<TRIPOS>MOLECULE
EGFR_5GMP_TargetProtein
40 44 1                 
SMALL
USER_CHARGES
@<TRIPOS>ATOM
1	  C1	6.726	-51.015	125.359	C.3	1	RES1	0.000	
2	  N1	4.223	-49.852	124.543	N.pl3	1	RES1	0.000	
3	  O1	4.483	-48.627	126.527	O.2	1	RES1	0.000	
4	  C2	6.372	-49.725	125.584	C.3	1	RES1	0.000	
5	  N2	0.186	-51.426	122.326	N.2	1	RES1	0.000	
6	  O2	1.051	-50.694	120.270	O.2	1	RES1	0.000	
7	  C3	4.936	-49.312	125.618	C.2	1	RES1	0.000	
8	  N3	-2.168	-54.202	124.375	N.2	1	RES1	0.000	
9	  O3	0.511	-45.607	133.789	O.2	1	RES1	0.000	
10	  C4	2.846	-49.641	124.248	C.2	1	RES1	0.000	
11	  N4	-1.745	-53.117	126.382	N.pl3	1	RES1	0.000	
12	  C5	2.125	-48.512	124.692	C.2	1	RES1	0.000	
13	  N5	-0.019	-49.398	130.378	N.pl3	1	RES1	0.000	
14	  C6	0.804	-48.353	124.344	C.2	1	RES1	0.000	
15	  N6	0.814	-47.433	132.351	N.pl3	1	RES1	0.000	
16	  C7	0.158	-49.330	123.543	C.2	1	RES1	0.000	
17	  C8	0.847	-50.447	123.117	C.2	1	RES1	0.000	
18	  O8	-3.260	-52.704	128.597	O.3	1	RES1	0.000	
19	  C9	0.389	-51.473	120.926	C.2	1	RES1	0.000	
20	 C10	-0.313	-52.583	120.213	C.2	1	RES1	0.000	
21	 C11	-1.074	-53.496	120.811	C.2	1	RES1	0.000	
22	 N11	-0.758	-52.300	124.371	N.2	1	RES1	0.000	
23	 C12	-1.761	-54.590	120.053	C.3	1	RES1	0.000	
24	 C13	-1.218	-53.400	122.268	C.2	1	RES1	0.000	
25	 C14	-1.998	-54.286	123.058	C.2	1	RES1	0.000	
26	 C15	-1.497	-53.209	124.997	C.2	1	RES1	0.000	
27	 C16	-1.257	-52.204	127.397	C.2	1	RES1	0.000	
28	 C17	-0.047	-51.528	127.281	C.2	1	RES1	0.000	
29	 C18	0.356	-50.602	128.269	C.2	1	RES1	0.000	
30	 C19	-0.426	-50.359	129.386	C.2	1	RES1	0.000	
31	 C20	-0.972	-48.875	131.400	C.3	1	RES1	0.000	
32	 C21	-0.573	-47.479	131.890	C.3	1	RES1	0.000	
33	 C22	1.207	-46.489	133.281	C.2	1	RES1	0.000	
34	 C56	1.778	-48.403	131.798	C.3	1	RES1	0.000	
35	 C57	1.381	-48.895	130.424	C.3	1	RES1	0.000	
36	 C58	-1.651	-51.062	129.514	C.2	1	RES1	0.000	
37	 C59	-2.044	-51.967	128.510	C.2	1	RES1	0.000	
38	 C60	-3.975	-52.654	129.815	C.3	1	RES1	0.000	
39	 C61	-0.597	-52.379	123.028	C.2	1	RES1	0.000	
40	 C62	2.214	-50.628	123.479	C.2	1	RES1	0.000	
@<TRIPOS>BOND
1 1 4 1
2 2 7 1
3 2 10 1
4 3 7 2
5 4 7 1
6 5 17 1
7 5 19 ar
8 5 39 ar
9 6 19 2
10 10 12 ar
11 10 40 ar
12 12 14 ar
13 13 35 1
14 14 16 ar
15 16 17 ar
16 19 20 ar
17 20 21 ar
18 21 23 1
19 21 24 ar
20 22 26 ar
21 22 39 ar
22 24 25 ar
23 24 39 ar
24 8 25 ar
25 8 26 ar
26 11 26 1
27 11 27 1
28 27 28 ar
29 27 37 ar
30 28 29 ar
31 29 30 ar
32 13 30 1
33 30 36 ar
34 13 31 1
35 31 32 1
36 15 32 1
37 9 33 2
38 15 33 1
39 15 34 1
40 34 35 1
41 36 37 ar
42 18 37 1
43 18 38 1
44 17 40 ar
@<TRIPOS>SUBSTRUCTURE
1	RES1	1	GROUP	1 ****	RES
