# created with PyMOL 2.5.2
@<TRIPOS>MOLECULE
EGFR_5GMP_TargetProtein
39 43 1                 
SMALL
USER_CHARGES
@<TRIPOS>ATOM
1	  C1	6.601	-50.678	125.834	C.3	1	RES1	0.000	
2	  N1	4.168	-49.787	124.752	N.pl3	1	RES1	0.000	
3	  O1	4.036	-48.487	126.714	O.2	1	RES1	0.000	
4	  C2	6.120	-49.448	126.070	C.3	1	RES1	0.000	
5	  N2	0.252	-51.550	122.265	N.2	1	RES1	0.000	
6	  O2	1.271	-50.973	120.250	O.2	1	RES1	0.000	
7	  C3	4.669	-49.189	125.915	C.2	1	RES1	0.000	
8	  N3	-2.341	-54.068	124.353	N.2	1	RES1	0.000	
9	  C4	2.842	-49.672	124.220	C.2	1	RES1	0.000	
10	  N4	-1.806	-52.998	126.347	N.pl3	1	RES1	0.000	
11	  C5	2.112	-48.532	124.593	C.2	1	RES1	0.000	
12	  N5	0.125	-49.418	130.309	N.pl3	1	RES1	0.000	
13	  C6	0.797	-48.401	124.156	C.2	1	RES1	0.000	
14	  N6	1.084	-47.784	132.529	N.3	1	RES1	0.000	
15	  C7	0.181	-49.377	123.376	C.2	1	RES1	0.000	
16	  O7	-3.192	-52.708	128.659	O.3	1	RES1	0.000	
17	  C8	0.906	-50.507	123.022	C.2	1	RES1	0.000	
18	  C9	0.510	-51.648	120.905	C.2	1	RES1	0.000	
19	 C10	-0.228	-52.748	120.193	C.2	1	RES1	0.000	
20	 C11	-1.088	-53.597	120.779	C.2	1	RES1	0.000	
21	 N11	-0.885	-52.243	124.284	N.2	1	RES1	0.000	
22	 C12	-1.774	-54.686	120.045	C.3	1	RES1	0.000	
23	 C13	-1.297	-53.432	122.246	C.2	1	RES1	0.000	
24	 C14	-2.132	-54.233	122.994	C.2	1	RES1	0.000	
25	 C15	-1.661	-53.090	124.959	C.2	1	RES1	0.000	
26	 C16	-1.378	-52.072	127.287	C.2	1	RES1	0.000	
27	 C17	-0.234	-51.260	127.072	C.2	1	RES1	0.000	
28	 C18	0.242	-50.389	128.054	C.2	1	RES1	0.000	
29	 C19	-0.388	-50.269	129.275	C.2	1	RES1	0.000	
30	 C20	-0.791	-49.066	131.449	C.3	1	RES1	0.000	
31	 C21	-0.344	-47.765	132.140	C.3	1	RES1	0.000	
32	 C22	1.493	-46.548	133.185	C.3	1	RES1	0.000	
33	 C56	1.927	-48.011	131.310	C.3	1	RES1	0.000	
34	 C57	1.556	-49.341	130.586	C.3	1	RES1	0.000	
35	 C58	-1.560	-51.029	129.496	C.2	1	RES1	0.000	
36	 C59	-2.040	-51.909	128.499	C.2	1	RES1	0.000	
37	 C60	-3.791	-52.714	129.948	C.3	1	RES1	0.000	
38	 C61	-0.646	-52.401	122.971	C.2	1	RES1	0.000	
39	 C62	2.228	-50.643	123.413	C.2	1	RES1	0.000	
@<TRIPOS>BOND
1 1 4 1
2 2 7 1
3 2 9 1
4 3 7 2
5 4 7 1
6 5 17 1
7 5 18 ar
8 5 38 ar
9 6 18 2
10 9 11 ar
11 9 39 ar
12 11 13 ar
13 12 34 1
14 13 15 ar
15 15 17 ar
16 18 19 ar
17 19 20 ar
18 20 22 1
19 20 23 ar
20 21 25 ar
21 21 38 ar
22 23 24 ar
23 23 38 ar
24 8 24 ar
25 8 25 ar
26 10 25 1
27 10 26 1
28 26 27 ar
29 26 36 ar
30 27 28 ar
31 28 29 ar
32 12 29 1
33 29 35 ar
34 12 30 1
35 30 31 1
36 14 31 1
37 14 32 1
38 14 33 1
39 33 34 1
40 35 36 ar
41 16 36 1
42 16 37 1
43 17 39 ar
@<TRIPOS>SUBSTRUCTURE
1	RES1	1	GROUP	1 ****	RES
