# created with PyMOL 2.5.2
@<TRIPOS>MOLECULE
EGFR_5GMP_TargetProtein
39 43 1                 
SMALL
USER_CHARGES
@<TRIPOS>ATOM
1	  C1	6.646	-50.715	125.860	C.3	1	RES1	0.000	
2	  N1	4.170	-49.784	124.697	N.pl3	1	RES1	0.000	
3	  O1	4.079	-48.446	126.620	O.2	1	RES1	0.000	
4	  C2	6.144	-49.453	126.025	C.3	1	RES1	0.000	
5	  N2	0.274	-51.580	122.272	N.2	1	RES1	0.000	
6	  O2	1.255	-50.977	120.220	O.2	1	RES1	0.000	
7	  C3	4.689	-49.161	125.829	C.2	1	RES1	0.000	
8	  N3	-2.317	-54.093	124.350	N.2	1	RES1	0.000	
9	  C4	2.880	-49.679	124.189	C.2	1	RES1	0.000	
10	  N4	-1.777	-53.010	126.372	N.pl3	1	RES1	0.000	
11	  C5	2.155	-48.537	124.512	C.2	1	RES1	0.000	
12	  N5	0.039	-49.395	130.375	N.pl3	1	RES1	0.000	
13	  C6	0.830	-48.387	124.066	C.2	1	RES1	0.000	
14	  N6	0.977	-47.454	132.312	N.3	1	RES1	0.000	
15	  C7	0.210	-49.376	123.343	C.2	1	RES1	0.000	
16	  O7	-3.252	-52.652	128.603	O.3	1	RES1	0.000	
17	  C8	0.917	-50.551	122.997	C.2	1	RES1	0.000	
18	  C9	0.497	-51.695	120.885	C.2	1	RES1	0.000	
19	 C10	-0.224	-52.756	120.164	C.2	1	RES1	0.000	
20	 C11	-1.089	-53.605	120.820	C.2	1	RES1	0.000	
21	 N11	-0.829	-52.271	124.289	N.2	1	RES1	0.000	
22	 C12	-1.784	-54.700	120.059	C.3	1	RES1	0.000	
23	 C13	-1.281	-53.451	122.278	C.2	1	RES1	0.000	
24	 C14	-2.121	-54.244	123.044	C.2	1	RES1	0.000	
25	 C15	-1.634	-53.092	124.968	C.2	1	RES1	0.000	
26	 C16	-1.350	-52.084	127.324	C.2	1	RES1	0.000	
27	 C17	-0.197	-51.293	127.152	C.2	1	RES1	0.000	
28	 C18	0.264	-50.436	128.126	C.2	1	RES1	0.000	
29	 C19	-0.451	-50.270	129.342	C.2	1	RES1	0.000	
30	 C20	-0.872	-48.871	131.411	C.3	1	RES1	0.000	
31	 C21	-0.092	-48.388	132.675	C.3	1	RES1	0.000	
32	 C22	1.649	-46.959	133.527	C.3	1	RES1	0.000	
33	 C56	1.914	-48.100	131.392	C.3	1	RES1	0.000	
34	 C57	1.222	-48.556	130.075	C.3	1	RES1	0.000	
35	 C58	-1.629	-50.998	129.499	C.2	1	RES1	0.000	
36	 C59	-2.074	-51.890	128.488	C.2	1	RES1	0.000	
37	 C60	-3.926	-52.662	129.889	C.3	1	RES1	0.000	
38	 C61	-0.621	-52.422	122.952	C.2	1	RES1	0.000	
39	 C62	2.249	-50.666	123.423	C.2	1	RES1	0.000	
@<TRIPOS>BOND
1 1 4 1
2 2 7 1
3 2 9 1
4 3 7 2
5 4 7 1
6 5 17 1
7 5 18 ar
8 5 38 ar
9 6 18 2
10 9 11 ar
11 9 39 ar
12 11 13 ar
13 12 34 1
14 13 15 ar
15 15 17 ar
16 18 19 ar
17 19 20 ar
18 20 22 1
19 20 23 ar
20 21 25 ar
21 21 38 ar
22 23 24 ar
23 23 38 ar
24 8 24 ar
25 8 25 ar
26 10 25 1
27 10 26 1
28 26 27 ar
29 26 36 ar
30 27 28 ar
31 28 29 ar
32 12 29 1
33 29 35 ar
34 12 30 1
35 30 31 1
36 14 31 1
37 14 32 1
38 14 33 1
39 33 34 1
40 35 36 ar
41 16 36 1
42 16 37 1
43 17 39 ar
@<TRIPOS>SUBSTRUCTURE
1	RES1	1	GROUP	1 ****	RES
