# created with PyMOL 2.5.2
@<TRIPOS>MOLECULE
CRBN_6H0G_TargetProtein
20 22 1                 
SMALL
USER_CHARGES
@<TRIPOS>ATOM
1	  N3	1.943	54.457	-85.598	N.pl3	1	RES1	0.000	
2	  N4	1.702	51.836	-82.095	N.2	1	RES1	0.000	
3	  N5	1.986	50.061	-78.854	N.pl3	1	RES1	0.000	
4	  O6	2.758	53.797	-82.824	O.2	1	RES1	0.000	
5	  O7	3.706	49.614	-77.454	O.3	1	RES1	0.000	
6	  O8	0.184	50.492	-80.152	O.2	1	RES1	0.000	
7	  O9	0.466	49.833	-82.231	O.2	1	RES1	0.000	
8	 C21	1.303	53.195	-85.433	C.2	1	RES1	0.000	
9	 C22	0.554	52.644	-86.470	C.2	1	RES1	0.000	
10	 C23	-0.127	51.435	-86.291	C.2	1	RES1	0.000	
11	 C24	-0.082	50.763	-85.089	C.2	1	RES1	0.000	
12	 C25	0.701	51.316	-84.067	C.2	1	RES1	0.000	
13	 C26	1.345	52.503	-84.233	C.2	1	RES1	0.000	
14	 C27	2.041	52.827	-82.995	C.2	1	RES1	0.000	
15	 C28	2.209	51.673	-80.713	C.3	1	RES1	0.000	
16	 C29	3.706	51.239	-80.699	C.3	1	RES1	0.000	
17	 C30	4.168	51.145	-79.272	C.3	1	RES1	0.000	
18	 C31	3.274	50.212	-78.474	C.3	1	RES1	0.000	
19	 C32	1.372	50.690	-79.927	C.2	1	RES1	0.000	
20	 C33	0.916	50.861	-82.693	C.2	1	RES1	0.000	
@<TRIPOS>BOND
1 1 8 1
2 8 9 ar
3 8 13 ar
4 9 10 ar
5 10 11 ar
6 11 12 ar
7 12 13 ar
8 12 20 ar
9 13 14 ar
10 2 14 ar
11 4 14 2
12 2 15 1
13 15 16 1
14 15 19 1
15 16 17 1
16 17 18 1
17 3 18 1
18 5 18 1
19 3 19 1
20 6 19 2
21 2 20 ar
22 7 20 2
@<TRIPOS>SUBSTRUCTURE
1	RES1	1	GROUP	1 ****	RES
