# created with PyMOL 2.5.2
@<TRIPOS>MOLECULE
EGFR_5GMP_TargetProtein
40 44 1                 
SMALL
USER_CHARGES
@<TRIPOS>ATOM
1	  C1	6.840	-50.946	125.549	C.3	1	RES1	0.000	
2	  N1	4.244	-49.875	124.498	N.pl3	1	RES1	0.000	
3	  O1	4.553	-48.410	126.304	O.2	1	RES1	0.000	
4	  C2	6.393	-49.686	125.632	C.3	1	RES1	0.000	
5	  N2	0.223	-51.487	122.337	N.2	1	RES1	0.000	
6	  O2	1.068	-50.754	120.272	O.2	1	RES1	0.000	
7	  C3	4.951	-49.270	125.543	C.2	1	RES1	0.000	
8	  N3	-2.194	-54.180	124.400	N.2	1	RES1	0.000	
9	  O3	2.279	-46.630	134.023	O.2	1	RES1	0.000	
10	  C4	2.889	-49.658	124.191	C.2	1	RES1	0.000	
11	  N4	-1.716	-53.106	126.415	N.pl3	1	RES1	0.000	
12	  C5	2.191	-48.496	124.529	C.2	1	RES1	0.000	
13	  N5	-0.032	-49.360	130.390	N.pl3	1	RES1	0.000	
14	  C6	0.843	-48.327	124.180	C.2	1	RES1	0.000	
15	  N6	0.769	-47.501	132.481	N.pl3	1	RES1	0.000	
16	  C7	0.202	-49.333	123.456	C.2	1	RES1	0.000	
17	  C8	0.890	-50.516	123.087	C.2	1	RES1	0.000	
18	  O8	-3.240	-52.699	128.568	O.3	1	RES1	0.000	
19	  C9	0.388	-51.531	120.929	C.2	1	RES1	0.000	
20	 C10	-0.365	-52.586	120.186	C.2	1	RES1	0.000	
21	 C11	-1.147	-53.490	120.831	C.2	1	RES1	0.000	
22	 N11	-0.719	-52.324	124.363	N.2	1	RES1	0.000	
23	 C12	-1.870	-54.550	120.038	C.3	1	RES1	0.000	
24	 C13	-1.270	-53.407	122.274	C.2	1	RES1	0.000	
25	 C14	-2.063	-54.270	123.055	C.2	1	RES1	0.000	
26	 C15	-1.497	-53.206	125.029	C.2	1	RES1	0.000	
27	 C16	-1.226	-52.206	127.410	C.2	1	RES1	0.000	
28	 C17	-0.034	-51.521	127.308	C.2	1	RES1	0.000	
29	 C18	0.352	-50.612	128.280	C.2	1	RES1	0.000	
30	 C19	-0.453	-50.342	129.388	C.2	1	RES1	0.000	
31	 C20	1.342	-48.827	130.419	C.3	1	RES1	0.000	
32	 C21	1.736	-48.417	131.851	C.3	1	RES1	0.000	
33	 C22	1.171	-46.683	133.500	C.2	1	RES1	0.000	
34	 C54	-0.584	-47.503	131.957	C.3	1	RES1	0.000	
35	 C55	-0.979	-48.871	131.409	C.3	1	RES1	0.000	
36	 C56	-1.646	-51.040	129.493	C.2	1	RES1	0.000	
37	 C57	-2.057	-51.955	128.538	C.2	1	RES1	0.000	
38	 C58	-4.000	-52.642	129.804	C.3	1	RES1	0.000	
39	 C59	-0.628	-52.411	123.036	C.2	1	RES1	0.000	
40	 C60	2.217	-50.665	123.488	C.2	1	RES1	0.000	
@<TRIPOS>BOND
1 1 4 1
2 2 7 1
3 2 10 1
4 3 7 2
5 4 7 1
6 5 17 1
7 5 19 ar
8 5 39 ar
9 6 19 2
10 10 12 ar
11 10 40 ar
12 12 14 ar
13 13 35 1
14 14 16 ar
15 16 17 ar
16 19 20 ar
17 20 21 ar
18 21 23 1
19 21 24 ar
20 22 26 ar
21 22 39 ar
22 24 25 ar
23 24 39 ar
24 8 25 ar
25 8 26 ar
26 11 26 1
27 11 27 1
28 27 28 ar
29 27 37 ar
30 28 29 ar
31 29 30 ar
32 13 30 1
33 30 36 ar
34 13 31 1
35 31 32 1
36 15 32 1
37 9 33 2
38 15 33 1
39 15 34 1
40 34 35 1
41 36 37 ar
42 18 37 1
43 18 38 1
44 17 40 ar
@<TRIPOS>SUBSTRUCTURE
1	RES1	1	GROUP	1 ****	RES
