# created with PyMOL 2.5.2
@<TRIPOS>MOLECULE
EGFR_5GMP_TargetProtein
40 44 1                 
SMALL
USER_CHARGES
@<TRIPOS>ATOM
1	  C1	6.764	-50.966	125.367	C.3	1	RES1	0.000	
2	  N1	4.256	-49.849	124.541	N.pl3	1	RES1	0.000	
3	  O1	4.546	-48.499	126.426	O.2	1	RES1	0.000	
4	  C2	6.422	-49.687	125.542	C.3	1	RES1	0.000	
5	  N2	0.204	-51.470	122.330	N.2	1	RES1	0.000	
6	  O2	1.076	-50.690	120.321	O.2	1	RES1	0.000	
7	  C3	4.986	-49.278	125.567	C.2	1	RES1	0.000	
8	  N3	-2.180	-54.189	124.376	N.2	1	RES1	0.000	
9	  O3	0.477	-45.643	133.806	O.2	1	RES1	0.000	
10	  C4	2.873	-49.648	124.241	C.2	1	RES1	0.000	
11	  N4	-1.760	-53.120	126.415	N.pl3	1	RES1	0.000	
12	  C5	2.197	-48.504	124.621	C.2	1	RES1	0.000	
13	  N5	-0.018	-49.413	130.393	N.pl3	1	RES1	0.000	
14	  C6	0.851	-48.353	124.281	C.2	1	RES1	0.000	
15	  N6	0.791	-47.470	132.370	N.pl3	1	RES1	0.000	
16	  C7	0.201	-49.310	123.527	C.2	1	RES1	0.000	
17	  C8	0.886	-50.469	123.133	C.2	1	RES1	0.000	
18	  O8	-3.277	-52.708	128.594	O.3	1	RES1	0.000	
19	  C9	0.380	-51.481	120.970	C.2	1	RES1	0.000	
20	 C10	-0.315	-52.561	120.218	C.2	1	RES1	0.000	
21	 C11	-1.105	-53.471	120.824	C.2	1	RES1	0.000	
22	 N11	-0.743	-52.325	124.369	N.2	1	RES1	0.000	
23	 C12	-1.807	-54.539	120.044	C.3	1	RES1	0.000	
24	 C13	-1.254	-53.395	122.293	C.2	1	RES1	0.000	
25	 C14	-2.004	-54.279	123.045	C.2	1	RES1	0.000	
26	 C15	-1.540	-53.236	125.014	C.2	1	RES1	0.000	
27	 C16	-1.283	-52.239	127.413	C.2	1	RES1	0.000	
28	 C17	-0.073	-51.553	127.315	C.2	1	RES1	0.000	
29	 C18	0.358	-50.651	128.274	C.2	1	RES1	0.000	
30	 C19	-0.439	-50.372	129.401	C.2	1	RES1	0.000	
31	 C20	1.371	-48.893	130.406	C.3	1	RES1	0.000	
32	 C21	1.748	-48.410	131.787	C.3	1	RES1	0.000	
33	 C22	1.195	-46.486	133.275	C.2	1	RES1	0.000	
34	 C54	-0.601	-47.508	131.912	C.3	1	RES1	0.000	
35	 C55	-0.992	-48.935	131.411	C.3	1	RES1	0.000	
36	 C56	-1.652	-51.065	129.516	C.2	1	RES1	0.000	
37	 C57	-2.058	-52.003	128.550	C.2	1	RES1	0.000	
38	 C58	-4.052	-52.599	129.804	C.3	1	RES1	0.000	
39	 C59	-0.634	-52.415	123.031	C.2	1	RES1	0.000	
40	 C60	2.226	-50.623	123.508	C.2	1	RES1	0.000	
@<TRIPOS>BOND
1 1 4 1
2 2 7 1
3 2 10 1
4 3 7 2
5 4 7 1
6 5 17 1
7 5 19 ar
8 5 39 ar
9 6 19 2
10 10 12 ar
11 10 40 ar
12 12 14 ar
13 13 35 1
14 14 16 ar
15 16 17 ar
16 19 20 ar
17 20 21 ar
18 21 23 1
19 21 24 ar
20 22 26 ar
21 22 39 ar
22 24 25 ar
23 24 39 ar
24 8 25 ar
25 8 26 ar
26 11 26 1
27 11 27 1
28 27 28 ar
29 27 37 ar
30 28 29 ar
31 29 30 ar
32 13 30 1
33 30 36 ar
34 13 31 1
35 31 32 1
36 15 32 1
37 9 33 2
38 15 33 1
39 15 34 1
40 34 35 1
41 36 37 ar
42 18 37 1
43 18 38 1
44 17 40 ar
@<TRIPOS>SUBSTRUCTURE
1	RES1	1	GROUP	1 ****	RES
