# created with PyMOL 2.5.2
@<TRIPOS>MOLECULE
EGFR_5GMP_TargetProtein
40 44 1                 
SMALL
USER_CHARGES
@<TRIPOS>ATOM
1	  C1	6.706	-50.908	125.640	C.3	1	RES1	0.000	
2	  N1	4.281	-49.801	124.657	N.pl3	1	RES1	0.000	
3	  O1	4.433	-48.438	126.568	O.2	1	RES1	0.000	
4	  C2	6.359	-49.605	125.796	C.3	1	RES1	0.000	
5	  N2	0.190	-51.462	122.372	N.2	1	RES1	0.000	
6	  O2	1.030	-50.631	120.353	O.2	1	RES1	0.000	
7	  C3	4.938	-49.195	125.714	C.2	1	RES1	0.000	
8	  N3	-2.233	-54.201	124.344	N.2	1	RES1	0.000	
9	  O3	0.568	-45.495	133.469	O.2	1	RES1	0.000	
10	  C4	2.888	-49.715	124.328	C.2	1	RES1	0.000	
11	  N4	-1.761	-53.200	126.384	N.pl3	1	RES1	0.000	
12	  C5	2.182	-48.600	124.770	C.2	1	RES1	0.000	
13	  N5	0.023	-49.410	130.271	N.pl3	1	RES1	0.000	
14	  C6	0.837	-48.401	124.416	C.2	1	RES1	0.000	
15	  N6	0.873	-47.381	132.144	N.pl3	1	RES1	0.000	
16	  C7	0.198	-49.362	123.648	C.2	1	RES1	0.000	
17	  C8	0.875	-50.501	123.195	C.2	1	RES1	0.000	
18	  O8	-3.260	-52.763	128.615	O.3	1	RES1	0.000	
19	  C9	0.353	-51.416	120.986	C.2	1	RES1	0.000	
20	 C10	-0.391	-52.473	120.196	C.2	1	RES1	0.000	
21	 C11	-1.174	-53.404	120.801	C.2	1	RES1	0.000	
22	 N11	-0.724	-52.383	124.378	N.2	1	RES1	0.000	
23	 C12	-1.881	-54.416	119.972	C.3	1	RES1	0.000	
24	 C13	-1.296	-53.380	122.272	C.2	1	RES1	0.000	
25	 C14	-2.108	-54.256	123.003	C.2	1	RES1	0.000	
26	 C15	-1.552	-53.258	124.999	C.2	1	RES1	0.000	
27	 C16	-1.255	-52.325	127.387	C.2	1	RES1	0.000	
28	 C17	-0.041	-51.638	127.258	C.2	1	RES1	0.000	
29	 C18	0.382	-50.723	128.201	C.2	1	RES1	0.000	
30	 C19	-0.375	-50.421	129.312	C.2	1	RES1	0.000	
31	 C20	-0.922	-48.864	131.262	C.3	1	RES1	0.000	
32	 C21	-0.511	-47.462	131.699	C.3	1	RES1	0.000	
33	 C22	1.266	-46.382	133.024	C.2	1	RES1	0.000	
34	 C52	1.835	-48.385	131.664	C.3	1	RES1	0.000	
35	 C53	1.405	-48.951	130.289	C.3	1	RES1	0.000	
36	 C54	-1.605	-51.121	129.481	C.2	1	RES1	0.000	
37	 C55	-2.036	-52.044	128.500	C.2	1	RES1	0.000	
38	 C56	-3.968	-52.670	129.876	C.3	1	RES1	0.000	
39	 C57	-0.638	-52.411	123.052	C.2	1	RES1	0.000	
40	 C58	2.219	-50.695	123.576	C.2	1	RES1	0.000	
@<TRIPOS>BOND
1 1 4 1
2 2 7 1
3 2 10 1
4 3 7 2
5 4 7 1
6 5 17 1
7 5 19 ar
8 5 39 ar
9 6 19 2
10 10 12 ar
11 10 40 ar
12 12 14 ar
13 13 35 1
14 14 16 ar
15 16 17 ar
16 19 20 ar
17 20 21 ar
18 21 23 1
19 21 24 ar
20 22 26 ar
21 22 39 ar
22 24 25 ar
23 24 39 ar
24 8 25 ar
25 8 26 ar
26 11 26 1
27 11 27 1
28 27 28 ar
29 27 37 ar
30 28 29 ar
31 29 30 ar
32 13 30 1
33 30 36 ar
34 13 31 1
35 31 32 1
36 15 32 1
37 9 33 2
38 15 33 1
39 15 34 1
40 34 35 1
41 36 37 ar
42 18 37 1
43 18 38 1
44 17 40 ar
@<TRIPOS>SUBSTRUCTURE
1	RES1	1	GROUP	1 ****	RES
