# created with PyMOL 2.5.2
@<TRIPOS>MOLECULE
EGFR_5GMP_TargetProtein
40 44 1                 
SMALL
USER_CHARGES
@<TRIPOS>ATOM
1	  C1	6.627	-50.692	125.895	C.3	1	RES1	0.000	
2	  N1	4.157	-49.827	124.759	N.pl3	1	RES1	0.000	
3	  O1	4.069	-48.473	126.671	O.2	1	RES1	0.000	
4	  C2	6.115	-49.458	126.068	C.3	1	RES1	0.000	
5	  N2	0.279	-51.545	122.274	N.2	1	RES1	0.000	
6	  O2	1.254	-50.976	120.240	O.2	1	RES1	0.000	
7	  C3	4.669	-49.185	125.892	C.2	1	RES1	0.000	
8	  N3	-2.337	-54.085	124.356	N.2	1	RES1	0.000	
9	  O3	1.124	-46.621	134.484	O.2	1	RES1	0.000	
10	  C4	2.850	-49.711	124.231	C.2	1	RES1	0.000	
11	  N4	-1.799	-53.019	126.343	N.pl3	1	RES1	0.000	
12	  C5	2.142	-48.540	124.546	C.2	1	RES1	0.000	
13	  N5	0.072	-49.404	130.342	N.pl3	1	RES1	0.000	
14	  C6	0.839	-48.372	124.100	C.2	1	RES1	0.000	
15	  N6	1.080	-47.588	132.382	N.pl3	1	RES1	0.000	
16	  C7	0.215	-49.380	123.361	C.2	1	RES1	0.000	
17	  C8	0.921	-50.526	123.012	C.2	1	RES1	0.000	
18	  O8	-3.233	-52.689	128.611	O.3	1	RES1	0.000	
19	  C9	0.513	-51.680	120.889	C.2	1	RES1	0.000	
20	 C10	-0.217	-52.764	120.161	C.2	1	RES1	0.000	
21	 C11	-1.079	-53.580	120.788	C.2	1	RES1	0.000	
22	 N11	-0.850	-52.259	124.309	N.2	1	RES1	0.000	
23	 C12	-1.804	-54.672	120.057	C.3	1	RES1	0.000	
24	 C13	-1.298	-53.440	122.233	C.2	1	RES1	0.000	
25	 C14	-2.141	-54.238	123.001	C.2	1	RES1	0.000	
26	 C15	-1.674	-53.086	124.936	C.2	1	RES1	0.000	
27	 C16	-1.352	-52.049	127.296	C.2	1	RES1	0.000	
28	 C17	-0.213	-51.286	127.117	C.2	1	RES1	0.000	
29	 C18	0.255	-50.412	128.111	C.2	1	RES1	0.000	
30	 C19	-0.437	-50.267	129.309	C.2	1	RES1	0.000	
31	 C20	-0.810	-48.874	131.406	C.3	1	RES1	0.000	
32	 C21	-0.029	-48.512	132.665	C.3	1	RES1	0.000	
33	 C22	1.545	-46.716	133.353	C.2	1	RES1	0.000	
34	 C52	1.677	-47.631	131.049	C.3	1	RES1	0.000	
35	 C53	1.486	-49.001	130.371	C.3	1	RES1	0.000	
36	 C54	-1.588	-51.032	129.477	C.2	1	RES1	0.000	
37	 C55	-2.077	-51.907	128.493	C.2	1	RES1	0.000	
38	 C56	-3.866	-52.702	129.907	C.3	1	RES1	0.000	
39	 C57	-0.667	-52.411	122.979	C.2	1	RES1	0.000	
40	 C58	2.253	-50.678	123.445	C.2	1	RES1	0.000	
@<TRIPOS>BOND
1 1 4 1
2 2 7 1
3 2 10 1
4 3 7 2
5 4 7 1
6 5 17 1
7 5 19 ar
8 5 39 ar
9 6 19 2
10 10 12 ar
11 10 40 ar
12 12 14 ar
13 13 35 1
14 14 16 ar
15 16 17 ar
16 19 20 ar
17 20 21 ar
18 21 23 1
19 21 24 ar
20 22 26 ar
21 22 39 ar
22 24 25 ar
23 24 39 ar
24 8 25 ar
25 8 26 ar
26 11 26 1
27 11 27 1
28 27 28 ar
29 27 37 ar
30 28 29 ar
31 29 30 ar
32 13 30 1
33 30 36 ar
34 13 31 1
35 31 32 1
36 15 32 1
37 9 33 2
38 15 33 1
39 15 34 1
40 34 35 1
41 36 37 ar
42 18 37 1
43 18 38 1
44 17 40 ar
@<TRIPOS>SUBSTRUCTURE
1	RES1	1	GROUP	1 ****	RES
