# created with PyMOL 2.5.2
@<TRIPOS>MOLECULE
EGFR_5GMP_TargetProtein
40 44 1                 
SMALL
USER_CHARGES
@<TRIPOS>ATOM
1	  C1	6.697	-50.860	125.766	C.3	1	RES1	0.000	
2	  N1	4.264	-49.820	124.653	N.pl3	1	RES1	0.000	
3	  O1	4.274	-48.481	126.618	O.2	1	RES1	0.000	
4	  C2	6.295	-49.568	125.934	C.3	1	RES1	0.000	
5	  N2	0.217	-51.454	122.368	N.2	1	RES1	0.000	
6	  O2	1.034	-50.629	120.344	O.2	1	RES1	0.000	
7	  C3	4.845	-49.213	125.790	C.2	1	RES1	0.000	
8	  N3	-2.249	-54.219	124.329	N.2	1	RES1	0.000	
9	  O3	2.228	-45.563	132.842	O.2	1	RES1	0.000	
10	  C4	2.913	-49.751	124.292	C.2	1	RES1	0.000	
11	  N4	-1.729	-53.202	126.400	N.pl3	1	RES1	0.000	
12	  C5	2.209	-48.654	124.782	C.2	1	RES1	0.000	
13	  N5	0.049	-49.436	130.281	N.pl3	1	RES1	0.000	
14	  C6	0.873	-48.462	124.440	C.2	1	RES1	0.000	
15	  N6	0.923	-47.352	132.138	N.pl3	1	RES1	0.000	
16	  C7	0.206	-49.394	123.637	C.2	1	RES1	0.000	
17	  C8	0.900	-50.521	123.183	C.2	1	RES1	0.000	
18	  O8	-3.292	-52.685	128.553	O.3	1	RES1	0.000	
19	  C9	0.343	-51.453	120.988	C.2	1	RES1	0.000	
20	 C10	-0.389	-52.465	120.205	C.2	1	RES1	0.000	
21	 C11	-1.177	-53.378	120.777	C.2	1	RES1	0.000	
22	 N11	-0.720	-52.407	124.393	N.2	1	RES1	0.000	
23	 C12	-1.950	-54.405	119.987	C.3	1	RES1	0.000	
24	 C13	-1.322	-53.361	122.261	C.2	1	RES1	0.000	
25	 C14	-2.111	-54.229	122.999	C.2	1	RES1	0.000	
26	 C15	-1.520	-53.281	124.978	C.2	1	RES1	0.000	
27	 C16	-1.222	-52.351	127.381	C.2	1	RES1	0.000	
28	 C17	-0.003	-51.695	127.288	C.2	1	RES1	0.000	
29	 C18	0.406	-50.760	128.233	C.2	1	RES1	0.000	
30	 C19	-0.378	-50.408	129.335	C.2	1	RES1	0.000	
31	 C20	-0.915	-48.753	131.171	C.3	1	RES1	0.000	
32	 C21	-0.252	-48.221	132.421	C.3	1	RES1	0.000	
33	 C22	1.302	-46.364	132.996	C.2	1	RES1	0.000	
34	 C50	1.631	-47.609	130.885	C.3	1	RES1	0.000	
35	 C51	1.472	-49.050	130.378	C.3	1	RES1	0.000	
36	 C52	-1.607	-51.077	129.441	C.2	1	RES1	0.000	
37	 C53	-2.053	-52.014	128.480	C.2	1	RES1	0.000	
38	 C54	-4.038	-52.561	129.753	C.3	1	RES1	0.000	
39	 C55	-0.640	-52.421	123.024	C.2	1	RES1	0.000	
40	 C56	2.256	-50.701	123.535	C.2	1	RES1	0.000	
@<TRIPOS>BOND
1 1 4 1
2 2 7 1
3 2 10 1
4 3 7 2
5 4 7 1
6 5 17 1
7 5 19 ar
8 5 39 ar
9 6 19 2
10 10 12 ar
11 10 40 ar
12 12 14 ar
13 13 35 1
14 14 16 ar
15 16 17 ar
16 19 20 ar
17 20 21 ar
18 21 23 1
19 21 24 ar
20 22 26 ar
21 22 39 ar
22 24 25 ar
23 24 39 ar
24 8 25 ar
25 8 26 ar
26 11 26 1
27 11 27 1
28 27 28 ar
29 27 37 ar
30 28 29 ar
31 29 30 ar
32 13 30 1
33 30 36 ar
34 13 31 1
35 31 32 1
36 15 32 1
37 9 33 2
38 15 33 1
39 15 34 1
40 34 35 1
41 36 37 ar
42 18 37 1
43 18 38 1
44 17 40 ar
@<TRIPOS>SUBSTRUCTURE
1	RES1	1	GROUP	1 ****	RES
