# created with PyMOL 2.5.2
@<TRIPOS>MOLECULE
EGFR_5GMP_TargetProtein
40 44 1                 
SMALL
USER_CHARGES
@<TRIPOS>ATOM
1	  C1	6.520	-51.079	125.799	C.3	1	RES1	0.000	
2	  N1	4.149	-49.804	124.665	N.pl3	1	RES1	0.000	
3	  O1	4.346	-48.476	126.581	O.2	1	RES1	0.000	
4	  C2	6.162	-49.803	125.976	C.3	1	RES1	0.000	
5	  N2	0.230	-51.481	122.294	N.2	1	RES1	0.000	
6	  O2	1.196	-50.829	120.276	O.2	1	RES1	0.000	
7	  C3	4.767	-49.297	125.790	C.2	1	RES1	0.000	
8	  N3	-2.247	-54.135	124.350	N.2	1	RES1	0.000	
9	  O3	0.587	-45.710	133.676	O.2	1	RES1	0.000	
10	  C4	2.775	-49.574	124.249	C.2	1	RES1	0.000	
11	  N4	-1.770	-53.053	126.355	N.pl3	1	RES1	0.000	
12	  C5	2.037	-48.471	124.633	C.2	1	RES1	0.000	
13	  N5	0.057	-49.378	130.345	N.pl3	1	RES1	0.000	
14	  C6	0.710	-48.357	124.241	C.2	1	RES1	0.000	
15	  N6	0.963	-47.576	132.345	N.pl3	1	RES1	0.000	
16	  C7	0.115	-49.344	123.447	C.2	1	RES1	0.000	
17	  C8	0.848	-50.463	123.049	C.2	1	RES1	0.000	
18	  O8	-3.109	-52.818	128.697	O.3	1	RES1	0.000	
19	  C9	0.464	-51.544	120.924	C.2	1	RES1	0.000	
20	 C10	-0.241	-52.662	120.184	C.2	1	RES1	0.000	
21	 C11	-1.050	-53.559	120.797	C.2	1	RES1	0.000	
22	 N11	-0.823	-52.245	124.312	N.2	1	RES1	0.000	
23	 C12	-1.720	-54.645	120.035	C.3	1	RES1	0.000	
24	 C13	-1.259	-53.421	122.276	C.2	1	RES1	0.000	
25	 C14	-2.055	-54.262	123.026	C.2	1	RES1	0.000	
26	 C15	-1.612	-53.130	124.955	C.2	1	RES1	0.000	
27	 C16	-1.335	-52.086	127.322	C.2	1	RES1	0.000	
28	 C17	-0.195	-51.303	127.125	C.2	1	RES1	0.000	
29	 C18	0.251	-50.414	128.101	C.2	1	RES1	0.000	
30	 C19	-0.411	-50.272	129.316	C.2	1	RES1	0.000	
31	 C20	1.408	-48.794	130.262	C.3	1	RES1	0.000	
32	 C21	1.961	-48.397	131.612	C.3	1	RES1	0.000	
33	 C22	1.319	-46.394	132.995	C.2	1	RES1	0.000	
34	 C50	-0.370	-48.173	132.490	C.3	1	RES1	0.000	
35	 C51	-0.926	-48.570	131.120	C.3	1	RES1	0.000	
36	 C52	-1.517	-51.078	129.521	C.2	1	RES1	0.000	
37	 C53	-1.985	-51.969	128.533	C.2	1	RES1	0.000	
38	 C54	-3.729	-52.871	129.997	C.3	1	RES1	0.000	
39	 C55	-0.617	-52.372	122.968	C.2	1	RES1	0.000	
40	 C56	2.236	-50.556	123.441	C.2	1	RES1	0.000	
@<TRIPOS>BOND
1 1 4 1
2 2 7 1
3 2 10 1
4 3 7 2
5 4 7 1
6 5 17 1
7 5 19 ar
8 5 39 ar
9 6 19 2
10 10 12 ar
11 10 40 ar
12 12 14 ar
13 13 35 1
14 14 16 ar
15 16 17 ar
16 19 20 ar
17 20 21 ar
18 21 23 1
19 21 24 ar
20 22 26 ar
21 22 39 ar
22 24 25 ar
23 24 39 ar
24 8 25 ar
25 8 26 ar
26 11 26 1
27 11 27 1
28 27 28 ar
29 27 37 ar
30 28 29 ar
31 29 30 ar
32 13 30 1
33 30 36 ar
34 13 31 1
35 31 32 1
36 15 32 1
37 9 33 2
38 15 33 1
39 15 34 1
40 34 35 1
41 36 37 ar
42 18 37 1
43 18 38 1
44 17 40 ar
@<TRIPOS>SUBSTRUCTURE
1	RES1	1	GROUP	1 ****	RES
