# created with PyMOL 2.5.2
@<TRIPOS>MOLECULE
EGFR_5GMP_TargetProtein
39 43 1                 
SMALL
USER_CHARGES
@<TRIPOS>ATOM
1	  C1	6.952	-50.871	125.527	C.3	1	RES1	0.000	
2	  N1	4.363	-49.829	124.452	N.pl3	1	RES1	0.000	
3	  O1	4.564	-48.476	126.356	O.2	1	RES1	0.000	
4	  C2	6.472	-49.619	125.631	C.3	1	RES1	0.000	
5	  N2	0.185	-51.437	122.395	N.2	1	RES1	0.000	
6	  O2	1.029	-50.657	120.359	O.2	1	RES1	0.000	
7	  C3	5.042	-49.243	125.522	C.2	1	RES1	0.000	
8	  N3	-2.216	-54.246	124.416	N.2	1	RES1	0.000	
9	  C4	2.986	-49.721	124.165	C.2	1	RES1	0.000	
10	  N4	-1.765	-53.157	126.421	N.pl3	1	RES1	0.000	
11	  C5	2.320	-48.605	124.650	C.2	1	RES1	0.000	
12	  N5	-0.030	-49.420	130.358	N.pl3	1	RES1	0.000	
13	  C6	0.944	-48.421	124.424	C.2	1	RES1	0.000	
14	  N6	0.657	-47.271	132.134	N.3	1	RES1	0.000	
15	  C7	0.244	-49.347	123.656	C.2	1	RES1	0.000	
16	  O7	-3.354	-52.664	128.576	O.3	1	RES1	0.000	
17	  C8	0.880	-50.507	123.166	C.2	1	RES1	0.000	
18	  C9	0.329	-51.443	121.010	C.2	1	RES1	0.000	
19	 C10	-0.365	-52.499	120.246	C.2	1	RES1	0.000	
20	 C11	-1.146	-53.413	120.826	C.2	1	RES1	0.000	
21	 N11	-0.747	-52.371	124.419	N.2	1	RES1	0.000	
22	 C12	-1.903	-54.464	120.037	C.3	1	RES1	0.000	
23	 C13	-1.301	-53.383	122.321	C.2	1	RES1	0.000	
24	 C14	-2.081	-54.270	123.062	C.2	1	RES1	0.000	
25	 C15	-1.535	-53.228	125.048	C.2	1	RES1	0.000	
26	 C16	-1.274	-52.314	127.417	C.2	1	RES1	0.000	
27	 C17	-0.027	-51.674	127.353	C.2	1	RES1	0.000	
28	 C18	0.371	-50.751	128.309	C.2	1	RES1	0.000	
29	 C19	-0.436	-50.399	129.388	C.2	1	RES1	0.000	
30	 C20	-1.064	-48.805	131.167	C.3	1	RES1	0.000	
31	 C21	-0.457	-48.157	132.459	C.3	1	RES1	0.000	
32	 C22	1.214	-46.645	133.361	C.3	1	RES1	0.000	
33	 C54	1.707	-48.010	131.426	C.3	1	RES1	0.000	
34	 C55	1.187	-48.645	130.126	C.3	1	RES1	0.000	
35	 C56	-1.652	-51.059	129.469	C.2	1	RES1	0.000	
36	 C57	-2.088	-51.987	128.514	C.2	1	RES1	0.000	
37	 C58	-4.109	-52.534	129.768	C.3	1	RES1	0.000	
38	 C59	-0.613	-52.413	123.038	C.2	1	RES1	0.000	
39	 C60	2.260	-50.706	123.448	C.2	1	RES1	0.000	
@<TRIPOS>BOND
1 1 4 1
2 2 7 1
3 2 9 1
4 3 7 2
5 4 7 1
6 5 17 1
7 5 18 ar
8 5 38 ar
9 6 18 2
10 9 11 ar
11 9 39 ar
12 11 13 ar
13 12 34 1
14 13 15 ar
15 15 17 ar
16 18 19 ar
17 19 20 ar
18 20 22 1
19 20 23 ar
20 21 25 ar
21 21 38 ar
22 23 24 ar
23 23 38 ar
24 8 24 ar
25 8 25 ar
26 10 25 1
27 10 26 1
28 26 27 ar
29 26 36 ar
30 27 28 ar
31 28 29 ar
32 12 29 1
33 29 35 ar
34 12 30 1
35 30 31 1
36 14 31 1
37 14 32 1
38 14 33 1
39 33 34 1
40 35 36 ar
41 16 36 1
42 16 37 1
43 17 39 ar
@<TRIPOS>SUBSTRUCTURE
1	RES1	1	GROUP	1 ****	RES
