# created with PyMOL 2.5.2
@<TRIPOS>MOLECULE
EGFR_5GMP_TargetProtein
39 43 1                 
SMALL
USER_CHARGES
@<TRIPOS>ATOM
1	  C1	6.508	-51.026	125.775	C.3	1	RES1	0.000	
2	  N1	4.152	-49.796	124.719	N.pl3	1	RES1	0.000	
3	  O1	4.256	-48.512	126.656	O.2	1	RES1	0.000	
4	  C2	6.196	-49.755	125.973	C.3	1	RES1	0.000	
5	  N2	0.261	-51.480	122.309	N.2	1	RES1	0.000	
6	  O2	1.202	-50.809	120.271	O.2	1	RES1	0.000	
7	  C3	4.766	-49.272	125.823	C.2	1	RES1	0.000	
8	  N3	-2.284	-54.108	124.354	N.2	1	RES1	0.000	
9	  C4	2.821	-49.585	124.295	C.2	1	RES1	0.000	
10	  N4	-1.749	-53.055	126.380	N.pl3	1	RES1	0.000	
11	  C5	2.063	-48.463	124.649	C.2	1	RES1	0.000	
12	  N5	0.137	-49.492	130.450	N.pl3	1	RES1	0.000	
13	  C6	0.740	-48.342	124.234	C.2	1	RES1	0.000	
14	  N6	1.115	-47.567	132.441	N.3	1	RES1	0.000	
15	  C7	0.125	-49.330	123.479	C.2	1	RES1	0.000	
16	  O7	-3.216	-52.703	128.626	O.3	1	RES1	0.000	
17	  C8	0.888	-50.457	123.090	C.2	1	RES1	0.000	
18	  C9	0.478	-51.568	120.924	C.2	1	RES1	0.000	
19	 C10	-0.260	-52.650	120.198	C.2	1	RES1	0.000	
20	 C11	-1.068	-53.498	120.800	C.2	1	RES1	0.000	
21	 N11	-0.809	-52.241	124.336	N.2	1	RES1	0.000	
22	 C12	-1.782	-54.567	120.045	C.3	1	RES1	0.000	
23	 C13	-1.269	-53.385	122.264	C.2	1	RES1	0.000	
24	 C14	-2.085	-54.208	123.014	C.2	1	RES1	0.000	
25	 C15	-1.597	-53.100	124.974	C.2	1	RES1	0.000	
26	 C16	-1.289	-52.132	127.352	C.2	1	RES1	0.000	
27	 C17	-0.119	-51.406	127.199	C.2	1	RES1	0.000	
28	 C18	0.351	-50.557	128.208	C.2	1	RES1	0.000	
29	 C19	-0.375	-50.357	129.382	C.2	1	RES1	0.000	
30	 C20	-0.806	-48.931	131.458	C.3	1	RES1	0.000	
31	 C21	-0.048	-48.446	132.711	C.3	1	RES1	0.000	
32	 C22	0.698	-46.240	131.946	C.3	1	RES1	0.000	
33	 C54	2.020	-48.237	131.485	C.3	1	RES1	0.000	
34	 C55	1.380	-48.716	130.192	C.3	1	RES1	0.000	
35	 C56	-1.553	-51.084	129.524	C.2	1	RES1	0.000	
36	 C57	-2.016	-51.943	128.529	C.2	1	RES1	0.000	
37	 C58	-3.898	-52.690	129.891	C.3	1	RES1	0.000	
38	 C59	-0.621	-52.373	122.991	C.2	1	RES1	0.000	
39	 C60	2.229	-50.578	123.467	C.2	1	RES1	0.000	
@<TRIPOS>BOND
1 1 4 1
2 2 7 1
3 2 9 1
4 3 7 2
5 4 7 1
6 5 17 1
7 5 18 ar
8 5 38 ar
9 6 18 2
10 9 11 ar
11 9 39 ar
12 11 13 ar
13 12 34 1
14 13 15 ar
15 15 17 ar
16 18 19 ar
17 19 20 ar
18 20 22 1
19 20 23 ar
20 21 25 ar
21 21 38 ar
22 23 24 ar
23 23 38 ar
24 8 24 ar
25 8 25 ar
26 10 25 1
27 10 26 1
28 26 27 ar
29 26 36 ar
30 27 28 ar
31 28 29 ar
32 12 29 1
33 29 35 ar
34 12 30 1
35 30 31 1
36 14 31 1
37 14 32 1
38 14 33 1
39 33 34 1
40 35 36 ar
41 16 36 1
42 16 37 1
43 17 39 ar
@<TRIPOS>SUBSTRUCTURE
1	RES1	1	GROUP	1 ****	RES
