# created with PyMOL 2.5.2
@<TRIPOS>MOLECULE
EGFR_5GMP_TargetProtein
39 43 1                 
SMALL
USER_CHARGES
@<TRIPOS>ATOM
1	  C1	6.628	-50.689	125.877	C.3	1	RES1	0.000	
2	  N1	4.213	-49.807	124.666	N.pl3	1	RES1	0.000	
3	  O1	4.068	-48.406	126.569	O.2	1	RES1	0.000	
4	  C2	6.139	-49.445	126.006	C.3	1	RES1	0.000	
5	  N2	0.259	-51.574	122.262	N.2	1	RES1	0.000	
6	  O2	1.247	-50.990	120.205	O.2	1	RES1	0.000	
7	  C3	4.686	-49.155	125.780	C.2	1	RES1	0.000	
8	  N3	-2.324	-54.053	124.360	N.2	1	RES1	0.000	
9	  C4	2.875	-49.721	124.150	C.2	1	RES1	0.000	
10	  N4	-1.792	-52.991	126.360	N.pl3	1	RES1	0.000	
11	  C5	2.176	-48.540	124.499	C.2	1	RES1	0.000	
12	  N5	0.060	-49.410	130.381	N.pl3	1	RES1	0.000	
13	  C6	0.832	-48.383	124.098	C.2	1	RES1	0.000	
14	  N6	0.964	-47.435	132.319	N.3	1	RES1	0.000	
15	  C7	0.216	-49.383	123.339	C.2	1	RES1	0.000	
16	  O7	-3.184	-52.730	128.662	O.3	1	RES1	0.000	
17	  C8	0.926	-50.549	122.991	C.2	1	RES1	0.000	
18	  C9	0.499	-51.687	120.868	C.2	1	RES1	0.000	
19	 C10	-0.249	-52.771	120.172	C.2	1	RES1	0.000	
20	 C11	-1.099	-53.616	120.779	C.2	1	RES1	0.000	
21	 N11	-0.812	-52.270	124.304	N.2	1	RES1	0.000	
22	 C12	-1.833	-54.700	120.073	C.3	1	RES1	0.000	
23	 C13	-1.317	-53.412	122.246	C.2	1	RES1	0.000	
24	 C14	-2.156	-54.234	123.036	C.2	1	RES1	0.000	
25	 C15	-1.636	-53.078	124.966	C.2	1	RES1	0.000	
26	 C16	-1.343	-52.050	127.303	C.2	1	RES1	0.000	
27	 C17	-0.195	-51.243	127.128	C.2	1	RES1	0.000	
28	 C18	0.233	-50.372	128.119	C.2	1	RES1	0.000	
29	 C19	-0.416	-50.256	129.351	C.2	1	RES1	0.000	
30	 C20	1.426	-48.836	130.288	C.3	1	RES1	0.000	
31	 C21	1.943	-48.353	131.640	C.3	1	RES1	0.000	
32	 C22	1.519	-46.962	133.596	C.3	1	RES1	0.000	
33	 C52	-0.328	-48.124	132.510	C.3	1	RES1	0.000	
34	 C53	-0.924	-48.591	131.178	C.3	1	RES1	0.000	
35	 C54	-1.548	-51.046	129.526	C.2	1	RES1	0.000	
36	 C55	-2.039	-51.943	128.526	C.2	1	RES1	0.000	
37	 C56	-3.817	-52.741	129.941	C.3	1	RES1	0.000	
38	 C57	-0.613	-52.434	122.954	C.2	1	RES1	0.000	
39	 C58	2.259	-50.681	123.389	C.2	1	RES1	0.000	
@<TRIPOS>BOND
1 1 4 1
2 2 7 1
3 2 9 1
4 3 7 2
5 4 7 1
6 5 17 1
7 5 18 ar
8 5 38 ar
9 6 18 2
10 9 11 ar
11 9 39 ar
12 11 13 ar
13 12 34 1
14 13 15 ar
15 15 17 ar
16 18 19 ar
17 19 20 ar
18 20 22 1
19 20 23 ar
20 21 25 ar
21 21 38 ar
22 23 24 ar
23 23 38 ar
24 8 24 ar
25 8 25 ar
26 10 25 1
27 10 26 1
28 26 27 ar
29 26 36 ar
30 27 28 ar
31 28 29 ar
32 12 29 1
33 29 35 ar
34 12 30 1
35 30 31 1
36 14 31 1
37 14 32 1
38 14 33 1
39 33 34 1
40 35 36 ar
41 16 36 1
42 16 37 1
43 17 39 ar
@<TRIPOS>SUBSTRUCTURE
1	RES1	1	GROUP	1 ****	RES
