# created with PyMOL 2.5.2
@<TRIPOS>MOLECULE
EGFR_5GMP_TargetProtein
39 43 1                 
SMALL
USER_CHARGES
@<TRIPOS>ATOM
1	  C1	6.658	-50.661	125.828	C.3	1	RES1	0.000	
2	  N1	4.190	-49.810	124.753	N.pl3	1	RES1	0.000	
3	  O1	4.059	-48.471	126.655	O.2	1	RES1	0.000	
4	  C2	6.161	-49.420	126.020	C.3	1	RES1	0.000	
5	  N2	0.265	-51.563	122.281	N.2	1	RES1	0.000	
6	  O2	1.280	-50.981	120.259	O.2	1	RES1	0.000	
7	  C3	4.709	-49.171	125.883	C.2	1	RES1	0.000	
8	  N3	-2.342	-54.075	124.348	N.2	1	RES1	0.000	
9	  C4	2.870	-49.702	124.245	C.2	1	RES1	0.000	
10	  N4	-1.817	-53.019	126.332	N.pl3	1	RES1	0.000	
11	  C5	2.150	-48.534	124.585	C.2	1	RES1	0.000	
12	  N5	0.106	-49.434	130.318	N.pl3	1	RES1	0.000	
13	  C6	0.828	-48.398	124.172	C.2	1	RES1	0.000	
14	  N6	1.278	-47.763	132.500	N.3	1	RES1	0.000	
15	  C7	0.206	-49.385	123.402	C.2	1	RES1	0.000	
16	  O7	-3.274	-52.626	128.613	O.3	1	RES1	0.000	
17	  C8	0.907	-50.558	123.047	C.2	1	RES1	0.000	
18	  C9	0.514	-51.686	120.923	C.2	1	RES1	0.000	
19	 C10	-0.236	-52.732	120.181	C.2	1	RES1	0.000	
20	 C11	-1.082	-53.582	120.805	C.2	1	RES1	0.000	
21	 N11	-0.853	-52.253	124.294	N.2	1	RES1	0.000	
22	 C12	-1.839	-54.661	120.032	C.3	1	RES1	0.000	
23	 C13	-1.314	-53.420	122.257	C.2	1	RES1	0.000	
24	 C14	-2.155	-54.215	123.017	C.2	1	RES1	0.000	
25	 C15	-1.685	-53.105	124.964	C.2	1	RES1	0.000	
26	 C16	-1.371	-52.060	127.309	C.2	1	RES1	0.000	
27	 C17	-0.209	-51.314	127.109	C.2	1	RES1	0.000	
28	 C18	0.227	-50.456	128.086	C.2	1	RES1	0.000	
29	 C19	-0.421	-50.258	129.305	C.2	1	RES1	0.000	
30	 C20	1.531	-49.030	130.348	C.3	1	RES1	0.000	
31	 C21	1.719	-47.718	131.103	C.3	1	RES1	0.000	
32	 C22	1.046	-46.419	133.034	C.3	1	RES1	0.000	
33	 C52	0.112	-48.661	132.690	C.3	1	RES1	0.000	
34	 C53	-0.729	-48.935	131.430	C.3	1	RES1	0.000	
35	 C54	-1.605	-50.997	129.470	C.2	1	RES1	0.000	
36	 C55	-2.089	-51.840	128.484	C.2	1	RES1	0.000	
37	 C56	-3.870	-52.654	129.902	C.3	1	RES1	0.000	
38	 C57	-0.637	-52.428	122.984	C.2	1	RES1	0.000	
39	 C58	2.252	-50.662	123.427	C.2	1	RES1	0.000	
@<TRIPOS>BOND
1 1 4 1
2 2 7 1
3 2 9 1
4 3 7 2
5 4 7 1
6 5 17 1
7 5 18 ar
8 5 38 ar
9 6 18 2
10 9 11 ar
11 9 39 ar
12 11 13 ar
13 12 34 1
14 13 15 ar
15 15 17 ar
16 18 19 ar
17 19 20 ar
18 20 22 1
19 20 23 ar
20 21 25 ar
21 21 38 ar
22 23 24 ar
23 23 38 ar
24 8 24 ar
25 8 25 ar
26 10 25 1
27 10 26 1
28 26 27 ar
29 26 36 ar
30 27 28 ar
31 28 29 ar
32 12 29 1
33 29 35 ar
34 12 30 1
35 30 31 1
36 14 31 1
37 14 32 1
38 14 33 1
39 33 34 1
40 35 36 ar
41 16 36 1
42 16 37 1
43 17 39 ar
@<TRIPOS>SUBSTRUCTURE
1	RES1	1	GROUP	1 ****	RES
