# created with PyMOL 2.5.2
@<TRIPOS>MOLECULE
CRBN_6H0G_TargetProtein
20 22 1                 
SMALL
USER_CHARGES
@<TRIPOS>ATOM
1	  N3	1.975	54.433	-85.609	N.pl3	1	RES1	0.000	
2	  N4	1.720	51.766	-82.123	N.2	1	RES1	0.000	
3	  O4	2.829	53.746	-82.850	O.2	1	RES1	0.000	
4	  N5	1.986	50.054	-78.832	N.pl3	1	RES1	0.000	
5	  O5	3.703	49.716	-77.413	O.2	1	RES1	0.000	
6	  O6	0.201	50.433	-80.203	O.2	1	RES1	0.000	
7	  O7	0.422	49.805	-82.258	O.2	1	RES1	0.000	
8	 C15	1.335	53.203	-85.437	C.2	1	RES1	0.000	
9	 C16	0.514	52.680	-86.474	C.2	1	RES1	0.000	
10	 C17	-0.190	51.499	-86.284	C.2	1	RES1	0.000	
11	 C18	-0.125	50.799	-85.078	C.2	1	RES1	0.000	
12	 C19	0.660	51.327	-84.076	C.2	1	RES1	0.000	
13	 C20	1.367	52.505	-84.253	C.2	1	RES1	0.000	
14	 C21	2.082	52.790	-82.987	C.2	1	RES1	0.000	
15	 C22	2.245	51.633	-80.742	C.3	1	RES1	0.000	
16	 C23	3.697	51.239	-80.664	C.3	1	RES1	0.000	
17	 C24	4.156	51.196	-79.215	C.3	1	RES1	0.000	
18	 C25	3.277	50.252	-78.412	C.2	1	RES1	0.000	
19	 C26	1.363	50.658	-79.943	C.2	1	RES1	0.000	
20	 C27	0.906	50.858	-82.712	C.2	1	RES1	0.000	
@<TRIPOS>BOND
1 1 8 1
2 8 9 ar
3 8 13 ar
4 9 10 ar
5 10 11 ar
6 11 12 ar
7 12 13 ar
8 12 20 ar
9 13 14 ar
10 2 14 ar
11 3 14 2
12 2 15 1
13 15 16 1
14 15 19 1
15 16 17 1
16 17 18 1
17 4 18 1
18 5 18 2
19 4 19 1
20 6 19 2
21 2 20 ar
22 7 20 2
@<TRIPOS>SUBSTRUCTURE
1	RES1	1	GROUP	1 ****	RES
