# created with PyMOL 2.5.2
@<TRIPOS>MOLECULE
EGFR_5GMP_TargetProtein
39 43 1                 
SMALL
USER_CHARGES
@<TRIPOS>ATOM
1	  C1	6.633	-50.957	125.525	C.3	1	RES1	0.000	
2	  N1	4.154	-49.817	124.724	N.pl3	1	RES1	0.000	
3	  O1	4.417	-48.549	126.699	O.2	1	RES1	0.000	
4	  C2	6.308	-49.686	125.760	C.3	1	RES1	0.000	
5	  N2	0.200	-51.447	122.410	N.2	1	RES1	0.000	
6	  O2	1.106	-50.613	120.436	O.2	1	RES1	0.000	
7	  C3	4.882	-49.277	125.804	C.2	1	RES1	0.000	
8	  N3	-2.149	-54.284	124.333	N.2	1	RES1	0.000	
9	  C4	2.783	-49.607	124.427	C.2	1	RES1	0.000	
10	  N4	-1.863	-53.181	126.345	N.pl3	1	RES1	0.000	
11	  C5	2.059	-48.509	124.853	C.2	1	RES1	0.000	
12	  N5	0.090	-49.473	130.248	N.pl3	1	RES1	0.000	
13	  C6	0.705	-48.365	124.477	C.2	1	RES1	0.000	
14	  N6	0.938	-47.285	131.946	N.3	1	RES1	0.000	
15	  C7	0.101	-49.327	123.676	C.2	1	RES1	0.000	
16	  O7	-3.434	-52.637	128.676	O.3	1	RES1	0.000	
17	  C8	0.835	-50.446	123.246	C.2	1	RES1	0.000	
18	  C9	0.432	-51.431	121.030	C.2	1	RES1	0.000	
19	 C10	-0.176	-52.531	120.254	C.2	1	RES1	0.000	
20	 C11	-0.950	-53.501	120.822	C.2	1	RES1	0.000	
21	 N11	-0.794	-52.358	124.396	N.2	1	RES1	0.000	
22	 C12	-1.566	-54.600	120.010	C.3	1	RES1	0.000	
23	 C13	-1.157	-53.441	122.284	C.2	1	RES1	0.000	
24	 C14	-1.926	-54.362	122.990	C.2	1	RES1	0.000	
25	 C15	-1.552	-53.294	124.991	C.2	1	RES1	0.000	
26	 C16	-1.509	-52.187	127.314	C.2	1	RES1	0.000	
27	 C17	-0.352	-51.488	127.075	C.2	1	RES1	0.000	
28	 C18	0.173	-50.587	128.013	C.2	1	RES1	0.000	
29	 C19	-0.447	-50.366	129.259	C.2	1	RES1	0.000	
30	 C20	-0.813	-48.946	131.302	C.3	1	RES1	0.000	
31	 C21	-0.076	-48.244	132.417	C.3	1	RES1	0.000	
32	 C22	1.584	-46.593	133.065	C.3	1	RES1	0.000	
33	 C50	1.916	-48.019	131.147	C.3	1	RES1	0.000	
34	 C51	1.329	-48.669	129.909	C.3	1	RES1	0.000	
35	 C52	-1.644	-51.089	129.475	C.2	1	RES1	0.000	
36	 C53	-2.166	-51.998	128.511	C.2	1	RES1	0.000	
37	 C54	-4.079	-52.510	129.923	C.3	1	RES1	0.000	
38	 C55	-0.613	-52.433	123.058	C.2	1	RES1	0.000	
39	 C56	2.168	-50.574	123.631	C.2	1	RES1	0.000	
@<TRIPOS>BOND
1 1 4 1
2 2 7 1
3 2 9 1
4 3 7 2
5 4 7 1
6 5 17 1
7 5 18 ar
8 5 38 ar
9 6 18 2
10 9 11 ar
11 9 39 ar
12 11 13 ar
13 12 34 1
14 13 15 ar
15 15 17 ar
16 18 19 ar
17 19 20 ar
18 20 22 1
19 20 23 ar
20 21 25 ar
21 21 38 ar
22 23 24 ar
23 23 38 ar
24 8 24 ar
25 8 25 ar
26 10 25 1
27 10 26 1
28 26 27 ar
29 26 36 ar
30 27 28 ar
31 28 29 ar
32 12 29 1
33 29 35 ar
34 12 30 1
35 30 31 1
36 14 31 1
37 14 32 1
38 14 33 1
39 33 34 1
40 35 36 ar
41 16 36 1
42 16 37 1
43 17 39 ar
@<TRIPOS>SUBSTRUCTURE
1	RES1	1	GROUP	1 ****	RES
