# created with PyMOL 2.5.2
@<TRIPOS>MOLECULE
EGFR_5GMP_TargetProtein
39 43 1                 
SMALL
USER_CHARGES
@<TRIPOS>ATOM
1	  C1	6.514	-51.035	125.686	C.3	1	RES1	0.000	
2	  N1	4.059	-49.847	124.808	N.pl3	1	RES1	0.000	
3	  O1	4.307	-48.563	126.743	O.2	1	RES1	0.000	
4	  C2	6.181	-49.756	125.906	C.3	1	RES1	0.000	
5	  N2	0.188	-51.466	122.374	N.2	1	RES1	0.000	
6	  O2	1.170	-50.694	120.419	O.2	1	RES1	0.000	
7	  C3	4.748	-49.319	125.893	C.2	1	RES1	0.000	
8	  N3	-2.274	-54.261	124.238	N.2	1	RES1	0.000	
9	  C4	2.720	-49.644	124.472	C.2	1	RES1	0.000	
10	  N4	-1.732	-53.158	126.335	N.pl3	1	RES1	0.000	
11	  C5	1.954	-48.595	124.891	C.2	1	RES1	0.000	
12	  N5	0.136	-49.335	130.201	N.pl3	1	RES1	0.000	
13	  C6	0.641	-48.448	124.527	C.2	1	RES1	0.000	
14	  N6	1.084	-47.591	132.286	N.3	1	RES1	0.000	
15	  C7	0.024	-49.409	123.689	C.2	1	RES1	0.000	
16	  O7	-3.191	-52.661	128.550	O.3	1	RES1	0.000	
17	  C8	0.800	-50.485	123.217	C.2	1	RES1	0.000	
18	  C9	0.456	-51.471	121.003	C.2	1	RES1	0.000	
19	 C10	-0.234	-52.529	120.210	C.2	1	RES1	0.000	
20	 C11	-1.049	-53.446	120.767	C.2	1	RES1	0.000	
21	 N11	-0.830	-52.395	124.369	N.2	1	RES1	0.000	
22	 C12	-1.720	-54.489	119.931	C.3	1	RES1	0.000	
23	 C13	-1.257	-53.406	122.241	C.2	1	RES1	0.000	
24	 C14	-2.108	-54.287	122.939	C.2	1	RES1	0.000	
25	 C15	-1.605	-53.300	124.951	C.2	1	RES1	0.000	
26	 C16	-1.231	-52.199	127.291	C.2	1	RES1	0.000	
27	 C17	-0.041	-51.501	127.123	C.2	1	RES1	0.000	
28	 C18	0.443	-50.583	128.063	C.2	1	RES1	0.000	
29	 C19	-0.298	-50.307	129.218	C.2	1	RES1	0.000	
30	 C20	1.540	-48.895	130.213	C.3	1	RES1	0.000	
31	 C21	1.691	-47.564	130.953	C.3	1	RES1	0.000	
32	 C22	1.264	-46.322	132.972	C.3	1	RES1	0.000	
33	 C50	-0.359	-47.921	132.182	C.3	1	RES1	0.000	
34	 C51	-0.572	-49.266	131.507	C.3	1	RES1	0.000	
35	 C52	-1.523	-50.981	129.380	C.2	1	RES1	0.000	
36	 C53	-1.962	-51.907	128.425	C.2	1	RES1	0.000	
37	 C54	-3.852	-52.572	129.806	C.3	1	RES1	0.000	
38	 C55	-0.666	-52.434	123.027	C.2	1	RES1	0.000	
39	 C56	2.124	-50.614	123.602	C.2	1	RES1	0.000	
@<TRIPOS>BOND
1 1 4 1
2 2 7 1
3 2 9 1
4 3 7 2
5 4 7 1
6 5 17 1
7 5 18 ar
8 5 38 ar
9 6 18 2
10 9 11 ar
11 9 39 ar
12 11 13 ar
13 12 34 1
14 13 15 ar
15 15 17 ar
16 18 19 ar
17 19 20 ar
18 20 22 1
19 20 23 ar
20 21 25 ar
21 21 38 ar
22 23 24 ar
23 23 38 ar
24 8 24 ar
25 8 25 ar
26 10 25 1
27 10 26 1
28 26 27 ar
29 26 36 ar
30 27 28 ar
31 28 29 ar
32 12 29 1
33 29 35 ar
34 12 30 1
35 30 31 1
36 14 31 1
37 14 32 1
38 14 33 1
39 33 34 1
40 35 36 ar
41 16 36 1
42 16 37 1
43 17 39 ar
@<TRIPOS>SUBSTRUCTURE
1	RES1	1	GROUP	1 ****	RES
