# created with PyMOL 2.5.2
@<TRIPOS>MOLECULE
EGFR_5GMP_TargetProtein
39 43 1                 
SMALL
USER_CHARGES
@<TRIPOS>ATOM
1	  C1	6.720	-50.945	125.736	C.3	1	RES1	0.000	
2	  N1	4.192	-49.853	124.608	N.pl3	1	RES1	0.000	
3	  O1	4.428	-48.435	126.436	O.2	1	RES1	0.000	
4	  C2	6.280	-49.696	125.829	C.3	1	RES1	0.000	
5	  N2	0.224	-51.504	122.300	N.2	1	RES1	0.000	
6	  O2	1.126	-50.765	120.278	O.2	1	RES1	0.000	
7	  C3	4.863	-49.278	125.680	C.2	1	RES1	0.000	
8	  N3	-2.204	-54.155	124.386	N.2	1	RES1	0.000	
9	  C4	2.820	-49.647	124.235	C.2	1	RES1	0.000	
10	  N4	-1.701	-53.127	126.391	N.pl3	1	RES1	0.000	
11	  C5	2.121	-48.496	124.586	C.2	1	RES1	0.000	
12	  N5	0.011	-49.379	130.388	N.pl3	1	RES1	0.000	
13	  C6	0.788	-48.339	124.188	C.2	1	RES1	0.000	
14	  N6	0.864	-47.288	132.199	N.3	1	RES1	0.000	
15	  C7	0.158	-49.344	123.466	C.2	1	RES1	0.000	
16	  O7	-3.210	-52.776	128.601	O.3	1	RES1	0.000	
17	  C8	0.886	-50.506	123.086	C.2	1	RES1	0.000	
18	  C9	0.421	-51.532	120.912	C.2	1	RES1	0.000	
19	 C10	-0.346	-52.598	120.178	C.2	1	RES1	0.000	
20	 C11	-1.145	-53.491	120.808	C.2	1	RES1	0.000	
21	 N11	-0.707	-52.321	124.353	N.2	1	RES1	0.000	
22	 C12	-1.896	-54.541	120.031	C.3	1	RES1	0.000	
23	 C13	-1.301	-53.392	122.271	C.2	1	RES1	0.000	
24	 C14	-2.099	-54.246	123.022	C.2	1	RES1	0.000	
25	 C15	-1.503	-53.207	124.998	C.2	1	RES1	0.000	
26	 C16	-1.228	-52.229	127.353	C.2	1	RES1	0.000	
27	 C17	-0.053	-51.483	127.259	C.2	1	RES1	0.000	
28	 C18	0.337	-50.568	128.237	C.2	1	RES1	0.000	
29	 C19	-0.434	-50.319	129.392	C.2	1	RES1	0.000	
30	 C20	1.371	-48.901	130.326	C.3	1	RES1	0.000	
31	 C21	1.833	-48.280	131.686	C.3	1	RES1	0.000	
32	 C22	1.316	-46.699	133.468	C.3	1	RES1	0.000	
33	 C48	-0.458	-47.932	132.348	C.3	1	RES1	0.000	
34	 C49	-0.987	-48.491	131.008	C.3	1	RES1	0.000	
35	 C50	-1.604	-51.104	129.517	C.2	1	RES1	0.000	
36	 C51	-1.985	-52.017	128.519	C.2	1	RES1	0.000	
37	 C52	-3.934	-52.710	129.840	C.3	1	RES1	0.000	
38	 C53	-0.607	-52.408	123.005	C.2	1	RES1	0.000	
39	 C54	2.187	-50.661	123.496	C.2	1	RES1	0.000	
@<TRIPOS>BOND
1 1 4 1
2 2 7 1
3 2 9 1
4 3 7 2
5 4 7 1
6 5 17 1
7 5 18 ar
8 5 38 ar
9 6 18 2
10 9 11 ar
11 9 39 ar
12 11 13 ar
13 13 15 ar
14 15 17 ar
15 18 19 ar
16 19 20 ar
17 20 22 1
18 20 23 ar
19 21 25 ar
20 21 38 ar
21 23 24 ar
22 23 38 ar
23 8 24 ar
24 8 25 ar
25 10 25 1
26 10 26 1
27 26 27 ar
28 26 36 ar
29 27 28 ar
30 28 29 ar
31 12 29 1
32 29 35 ar
33 12 30 1
34 30 31 1
35 14 31 1
36 14 32 1
37 14 33 1
38 33 34 1
39 12 34 1
40 35 36 ar
41 16 36 1
42 16 37 1
43 17 39 ar
@<TRIPOS>SUBSTRUCTURE
1	RES1	1	GROUP	1 ****	RES
