# created with PyMOL 2.5.2
@<TRIPOS>MOLECULE
EGFR_5GMP_TargetProtein
39 43 1                 
SMALL
USER_CHARGES
@<TRIPOS>ATOM
1	  C1	6.541	-51.053	125.818	C.3	1	RES1	0.000	
2	  N1	4.141	-49.796	124.640	N.pl3	1	RES1	0.000	
3	  O1	4.322	-48.420	126.533	O.2	1	RES1	0.000	
4	  C2	6.149	-49.748	125.981	C.3	1	RES1	0.000	
5	  N2	0.235	-51.513	122.283	N.2	1	RES1	0.000	
6	  O2	1.209	-50.883	120.252	O.2	1	RES1	0.000	
7	  C3	4.756	-49.271	125.770	C.2	1	RES1	0.000	
8	  N3	-2.234	-54.145	124.351	N.2	1	RES1	0.000	
9	  C4	2.801	-49.594	124.234	C.2	1	RES1	0.000	
10	  N4	-1.756	-53.036	126.332	N.pl3	1	RES1	0.000	
11	  C5	2.023	-48.465	124.615	C.2	1	RES1	0.000	
12	  N5	0.044	-49.355	130.349	N.pl3	1	RES1	0.000	
13	  C6	0.687	-48.365	124.218	C.2	1	RES1	0.000	
14	  N6	0.909	-47.409	132.306	N.3	1	RES1	0.000	
15	  C7	0.099	-49.363	123.413	C.2	1	RES1	0.000	
16	  O7	-3.201	-52.692	128.618	O.3	1	RES1	0.000	
17	  C8	0.853	-50.489	123.029	C.2	1	RES1	0.000	
18	  C9	0.495	-51.619	120.908	C.2	1	RES1	0.000	
19	 C10	-0.186	-52.725	120.190	C.2	1	RES1	0.000	
20	 C11	-1.028	-53.603	120.796	C.2	1	RES1	0.000	
21	 N11	-0.832	-52.259	124.307	N.2	1	RES1	0.000	
22	 C12	-1.692	-54.731	120.075	C.3	1	RES1	0.000	
23	 C13	-1.229	-53.452	122.265	C.2	1	RES1	0.000	
24	 C14	-2.040	-54.276	123.043	C.2	1	RES1	0.000	
25	 C15	-1.586	-53.127	124.959	C.2	1	RES1	0.000	
26	 C16	-1.339	-52.056	127.320	C.2	1	RES1	0.000	
27	 C17	-0.172	-51.315	127.136	C.2	1	RES1	0.000	
28	 C18	0.263	-50.424	128.100	C.2	1	RES1	0.000	
29	 C19	-0.416	-50.244	129.323	C.2	1	RES1	0.000	
30	 C20	-0.904	-48.880	131.357	C.3	1	RES1	0.000	
31	 C21	-0.156	-48.371	132.614	C.3	1	RES1	0.000	
32	 C22	1.572	-46.958	133.525	C.3	1	RES1	0.000	
33	 C48	1.893	-47.987	131.370	C.3	1	RES1	0.000	
34	 C49	1.204	-48.483	130.067	C.3	1	RES1	0.000	
35	 C50	-1.598	-50.990	129.499	C.2	1	RES1	0.000	
36	 C51	-2.030	-51.896	128.473	C.2	1	RES1	0.000	
37	 C52	-3.854	-52.692	129.941	C.3	1	RES1	0.000	
38	 C53	-0.621	-52.421	122.989	C.2	1	RES1	0.000	
39	 C54	2.216	-50.555	123.412	C.2	1	RES1	0.000	
@<TRIPOS>BOND
1 1 4 1
2 2 7 1
3 2 9 1
4 3 7 2
5 4 7 1
6 5 17 1
7 5 18 ar
8 5 38 ar
9 6 18 2
10 9 11 ar
11 9 39 ar
12 11 13 ar
13 13 15 ar
14 15 17 ar
15 18 19 ar
16 19 20 ar
17 20 22 1
18 20 23 ar
19 21 25 ar
20 21 38 ar
21 23 24 ar
22 23 38 ar
23 8 24 ar
24 8 25 ar
25 10 25 1
26 10 26 1
27 26 27 ar
28 26 36 ar
29 27 28 ar
30 28 29 ar
31 12 29 1
32 29 35 ar
33 12 30 1
34 30 31 1
35 14 31 1
36 14 32 1
37 14 33 1
38 33 34 1
39 12 34 1
40 35 36 ar
41 16 36 1
42 16 37 1
43 17 39 ar
@<TRIPOS>SUBSTRUCTURE
1	RES1	1	GROUP	1 ****	RES
