# created with PyMOL 2.5.2
@<TRIPOS>MOLECULE
PDE_5ML8_TargetProtein
41 45 1                 
SMALL
USER_CHARGES
@<TRIPOS>ATOM
1	 CL1	-29.768	10.471	-10.354	Cl	1	RES1	0.000	
2	  S1	-18.902	4.383	-16.404	S.O2	1	RES1	0.000	
3	  S2	-23.219	7.200	-12.635	S.O2	1	RES1	0.000	
4	  N5	-18.683	2.874	-15.572	N.3	1	RES1	0.000	
5	  N6	-14.021	1.485	-13.770	N.3	1	RES1	0.000	
6	  N7	-24.105	8.399	-13.599	N.3	1	RES1	0.000	
7	 O10	-19.489	4.111	-17.727	O.2	1	RES1	0.000	
8	 O11	-17.688	5.152	-16.306	O.2	1	RES1	0.000	
9	 O12	-22.470	7.890	-11.607	O.2	1	RES1	0.000	
10	 O13	-24.120	6.105	-12.278	O.2	1	RES1	0.000	
11	 C27	-19.045	-1.776	-17.706	C.2	1	RES1	0.000	
12	 C28	-19.259	-0.611	-18.432	C.2	1	RES1	0.000	
13	 C29	-19.559	0.570	-17.767	C.2	1	RES1	0.000	
14	 C30	-19.638	0.627	-16.360	C.2	1	RES1	0.000	
15	 C31	-19.850	1.929	-15.621	C.3	1	RES1	0.000	
16	 C32	-18.089	3.016	-14.195	C.3	1	RES1	0.000	
17	 C33	-16.898	2.128	-13.955	C.3	1	RES1	0.000	
18	 C34	-15.989	2.645	-12.797	C.3	1	RES1	0.000	
19	 C35	-14.797	1.698	-12.547	C.3	1	RES1	0.000	
20	 C36	-14.861	0.947	-14.852	C.3	1	RES1	0.000	
21	 C37	-16.052	1.844	-15.185	C.3	1	RES1	0.000	
22	 C38	-20.168	5.292	-15.471	C.2	1	RES1	0.000	
23	 C39	-21.480	4.988	-15.575	C.2	1	RES1	0.000	
24	 C40	-22.429	5.577	-14.767	C.2	1	RES1	0.000	
25	 C41	-22.029	6.505	-13.804	C.2	1	RES1	0.000	
26	 C42	-25.523	8.051	-13.940	C.3	1	RES1	0.000	
27	 C43	-26.598	8.651	-13.042	C.2	1	RES1	0.000	
28	 C44	-26.255	9.164	-11.790	C.2	1	RES1	0.000	
29	 C45	-27.219	9.730	-10.970	C.2	1	RES1	0.000	
30	 C46	-28.535	9.748	-11.384	C.2	1	RES1	0.000	
31	 C47	-28.890	9.249	-12.636	C.2	1	RES1	0.000	
32	 C48	-27.950	8.711	-13.452	C.2	1	RES1	0.000	
33	 C49	-23.318	9.216	-14.569	C.3	1	RES1	0.000	
34	 C50	-23.530	10.706	-14.300	C.3	1	RES1	0.000	
35	 C51	-23.532	11.332	-15.688	C.3	1	RES1	0.000	
36	 C52	-24.259	10.296	-16.521	C.3	1	RES1	0.000	
37	 C53	-23.708	8.994	-16.045	C.3	1	RES1	0.000	
38	 C54	-20.658	6.852	-13.664	C.2	1	RES1	0.000	
39	 C55	-19.715	6.246	-14.513	C.2	1	RES1	0.000	
40	 C56	-19.377	-0.562	-15.663	C.2	1	RES1	0.000	
41	 C57	-19.107	-1.745	-16.315	C.2	1	RES1	0.000	
@<TRIPOS>BOND
1 1 30 1
2 2 4 1
3 2 7 2
4 2 8 2
5 2 22 1
6 3 6 1
7 3 25 1
8 3 9 2
9 3 10 2
10 11 12 ar
11 11 41 ar
12 12 13 ar
13 13 14 ar
14 14 15 1
15 14 40 ar
16 4 15 1
17 4 16 1
18 16 17 1
19 17 18 1
20 17 21 1
21 18 19 1
22 5 19 1
23 5 20 1
24 20 21 1
25 22 23 ar
26 22 39 ar
27 23 24 ar
28 24 25 ar
29 25 38 ar
30 6 26 1
31 26 27 1
32 27 28 ar
33 27 32 ar
34 28 29 ar
35 29 30 ar
36 30 31 ar
37 31 32 ar
38 6 33 1
39 33 34 1
40 33 37 1
41 34 35 1
42 35 36 1
43 36 37 1
44 38 39 ar
45 40 41 ar
@<TRIPOS>SUBSTRUCTURE
1	RES1	1	GROUP	1 ****	RES
