# created with PyMOL 2.5.2
@<TRIPOS>MOLECULE
CDK6_2EUF_TargetProtein
33 37 1                 
SMALL
USER_CHARGES
@<TRIPOS>ATOM
1	  C1	34.274	27.940	59.533	C.3	1	RES1	0.000	
2	  N1	31.641	22.621	63.382	N.2	1	RES1	0.000	
3	  O1	32.319	28.806	60.562	O.2	1	RES1	0.000	
4	  C2	32.953	27.835	60.257	C.2	1	RES1	0.000	
5	  N2	30.431	20.776	62.667	N.pl3	1	RES1	0.000	
6	  C3	32.408	26.456	60.514	C.2	1	RES1	0.000	
7	  N3	27.686	16.627	59.963	N.pl3	1	RES1	0.000	
8	  C4	32.669	25.866	61.708	C.2	1	RES1	0.000	
9	  N4	26.077	14.527	58.798	N.3	1	RES1	0.000	
10	  C5	33.506	26.469	62.807	C.3	1	RES1	0.000	
11	  C6	32.084	24.519	61.945	C.2	1	RES1	0.000	
12	  O6	31.428	26.368	58.397	O.2	1	RES1	0.000	
13	  C7	32.178	23.824	63.176	C.2	1	RES1	0.000	
14	  C8	30.994	22.028	62.365	C.2	1	RES1	0.000	
15	  C9	29.750	19.813	61.920	C.2	1	RES1	0.000	
16	  N9	29.685	18.584	62.513	N.2	1	RES1	0.000	
17	 C10	29.128	20.055	60.726	C.2	1	RES1	0.000	
18	 N10	30.820	22.621	61.156	N.2	1	RES1	0.000	
19	 C11	28.456	19.035	60.051	C.2	1	RES1	0.000	
20	 N11	31.260	24.441	59.656	N.2	1	RES1	0.000	
21	 C12	28.376	17.721	60.620	C.2	1	RES1	0.000	
22	 C13	26.887	16.920	58.741	C.3	1	RES1	0.000	
23	 C14	26.614	15.613	57.968	C.3	1	RES1	0.000	
24	 C46	27.015	14.235	59.890	C.3	1	RES1	0.000	
25	 C47	27.292	15.476	60.775	C.3	1	RES1	0.000	
26	 C48	29.040	17.597	61.838	C.2	1	RES1	0.000	
27	 C49	31.406	23.836	60.955	C.2	1	RES1	0.000	
28	 C50	30.551	23.666	58.616	C.3	1	RES1	0.000	
29	 C51	31.461	23.109	57.522	C.3	1	RES1	0.000	
30	 C52	30.909	23.614	56.201	C.3	1	RES1	0.000	
31	 C53	29.479	23.880	56.478	C.3	1	RES1	0.000	
32	 C54	29.468	24.469	57.891	C.3	1	RES1	0.000	
33	 C55	31.656	25.717	59.432	C.2	1	RES1	0.000	
@<TRIPOS>BOND
1 1 4 1
2 2 13 ar
3 2 14 ar
4 3 4 2
5 4 6 1
6 5 14 1
7 5 15 1
8 6 8 ar
9 6 33 ar
10 7 25 1
11 8 10 1
12 8 11 ar
13 9 24 1
14 11 13 ar
15 15 16 ar
16 15 17 ar
17 17 19 ar
18 14 18 ar
19 18 27 ar
20 19 21 ar
21 20 27 ar
22 20 28 1
23 20 33 ar
24 7 21 1
25 21 26 ar
26 7 22 1
27 22 23 1
28 9 23 1
29 24 25 1
30 16 26 ar
31 11 27 ar
32 28 29 1
33 28 32 1
34 29 30 1
35 30 31 1
36 31 32 1
37 12 33 2
@<TRIPOS>SUBSTRUCTURE
1	RES1	1	GROUP	1 ****	RES
