# created with PyMOL 2.5.2
@<TRIPOS>MOLECULE
CDK6_2EUF_TargetProtein
33 37 1                 
SMALL
USER_CHARGES
@<TRIPOS>ATOM
1	  C1	34.742	27.648	59.582	C.3	1	RES1	0.000	
2	  N1	31.349	22.967	63.561	N.2	1	RES1	0.000	
3	  O1	32.668	28.713	60.079	O.2	1	RES1	0.000	
4	  C2	33.297	27.645	60.008	C.2	1	RES1	0.000	
5	  N2	30.227	21.004	62.738	N.pl3	1	RES1	0.000	
6	  C3	32.678	26.378	60.370	C.2	1	RES1	0.000	
7	  N3	27.910	16.924	59.602	N.pl3	1	RES1	0.000	
8	  C4	32.604	25.991	61.659	C.2	1	RES1	0.000	
9	  N4	26.505	14.611	58.498	N.3	1	RES1	0.000	
10	  C5	33.119	26.826	62.823	C.3	1	RES1	0.000	
11	  C6	31.988	24.684	61.968	C.2	1	RES1	0.000	
12	  C7	31.921	24.159	63.258	C.2	1	RES1	0.000	
13	  C8	30.831	22.262	62.536	C.2	1	RES1	0.000	
14	  C9	29.676	20.039	61.879	C.2	1	RES1	0.000	
15	  N9	29.372	18.865	62.455	N.2	1	RES1	0.000	
16	  O9	32.179	25.908	58.120	O.2	1	RES1	0.000	
17	 C10	29.386	20.265	60.540	C.2	1	RES1	0.000	
18	 N10	30.867	22.694	61.273	N.2	1	RES1	0.000	
19	 C11	28.819	19.230	59.766	C.2	1	RES1	0.000	
20	 N11	31.442	24.345	59.644	N.2	1	RES1	0.000	
21	 C12	28.533	17.976	60.325	C.2	1	RES1	0.000	
22	 C13	28.566	15.592	59.492	C.3	1	RES1	0.000	
23	 C14	27.984	14.720	58.402	C.3	1	RES1	0.000	
24	 C46	25.927	15.942	58.420	C.3	1	RES1	0.000	
25	 C47	26.431	16.881	59.529	C.3	1	RES1	0.000	
26	 C48	28.816	17.882	61.703	C.2	1	RES1	0.000	
27	 C49	31.437	23.884	61.000	C.2	1	RES1	0.000	
28	 C50	30.838	23.489	58.538	C.3	1	RES1	0.000	
29	 C51	29.935	24.253	57.563	C.3	1	RES1	0.000	
30	 C52	28.656	23.421	57.488	C.3	1	RES1	0.000	
31	 C53	29.065	22.051	57.915	C.3	1	RES1	0.000	
32	 C54	30.067	22.282	59.031	C.3	1	RES1	0.000	
33	 C55	32.065	25.533	59.260	C.2	1	RES1	0.000	
@<TRIPOS>BOND
1 1 4 1
2 2 12 ar
3 2 13 ar
4 3 4 2
5 4 6 1
6 5 13 1
7 5 14 1
8 6 8 ar
9 6 33 ar
10 7 25 1
11 8 10 1
12 8 11 ar
13 9 24 1
14 11 12 ar
15 14 15 ar
16 14 17 ar
17 17 19 ar
18 13 18 ar
19 18 27 ar
20 19 21 ar
21 20 27 ar
22 20 28 1
23 20 33 ar
24 7 21 1
25 21 26 ar
26 7 22 1
27 22 23 1
28 9 23 1
29 24 25 1
30 15 26 ar
31 11 27 ar
32 28 29 1
33 28 32 1
34 29 30 1
35 30 31 1
36 31 32 1
37 16 33 2
@<TRIPOS>SUBSTRUCTURE
1	RES1	1	GROUP	1 ****	RES
