# created with PyMOL 2.5.2
@<TRIPOS>MOLECULE
CDK6_2EUF_TargetProtein
33 37 1                 
SMALL
USER_CHARGES
@<TRIPOS>ATOM
1	  C1	34.733	27.637	59.528	C.3	1	RES1	0.000	
2	  N1	31.364	22.928	63.537	N.2	1	RES1	0.000	
3	  O1	32.690	28.712	60.076	O.2	1	RES1	0.000	
4	  C2	33.302	27.649	59.997	C.2	1	RES1	0.000	
5	  N2	30.233	20.996	62.731	N.pl3	1	RES1	0.000	
6	  C3	32.661	26.360	60.360	C.2	1	RES1	0.000	
7	  N3	27.862	16.910	59.660	N.pl3	1	RES1	0.000	
8	  C4	32.638	25.981	61.646	C.2	1	RES1	0.000	
9	  N4	26.599	14.604	58.392	N.3	1	RES1	0.000	
10	  C5	33.154	26.817	62.809	C.3	1	RES1	0.000	
11	  C6	32.012	24.687	61.973	C.2	1	RES1	0.000	
12	  C7	31.912	24.132	63.236	C.2	1	RES1	0.000	
13	  C8	30.848	22.245	62.520	C.2	1	RES1	0.000	
14	  C9	29.642	20.051	61.920	C.2	1	RES1	0.000	
15	  N9	29.394	18.849	62.482	N.2	1	RES1	0.000	
16	  O9	32.179	25.925	58.119	O.2	1	RES1	0.000	
17	 C10	29.280	20.253	60.580	C.2	1	RES1	0.000	
18	 N10	30.853	22.681	61.262	N.2	1	RES1	0.000	
19	 C11	28.707	19.240	59.846	C.2	1	RES1	0.000	
20	 N11	31.483	24.319	59.620	N.2	1	RES1	0.000	
21	 C12	28.456	17.998	60.400	C.2	1	RES1	0.000	
22	 C13	28.580	15.604	59.574	C.3	1	RES1	0.000	
23	 C14	28.085	14.745	58.418	C.3	1	RES1	0.000	
24	 C46	25.991	15.961	58.304	C.3	1	RES1	0.000	
25	 C47	26.407	16.867	59.442	C.3	1	RES1	0.000	
26	 C48	28.845	17.870	61.749	C.2	1	RES1	0.000	
27	 C49	31.418	23.882	60.958	C.2	1	RES1	0.000	
28	 C50	30.839	23.501	58.545	C.3	1	RES1	0.000	
29	 C51	29.988	24.223	57.516	C.3	1	RES1	0.000	
30	 C52	28.669	23.475	57.482	C.3	1	RES1	0.000	
31	 C53	29.010	22.078	57.979	C.3	1	RES1	0.000	
32	 C54	29.977	22.344	59.100	C.3	1	RES1	0.000	
33	 C55	32.089	25.539	59.262	C.2	1	RES1	0.000	
@<TRIPOS>BOND
1 1 4 1
2 2 12 ar
3 2 13 ar
4 3 4 2
5 4 6 1
6 5 13 1
7 5 14 1
8 6 8 ar
9 6 33 ar
10 7 25 1
11 8 10 1
12 8 11 ar
13 9 24 1
14 11 12 ar
15 14 15 ar
16 14 17 ar
17 17 19 ar
18 13 18 ar
19 18 27 ar
20 19 21 ar
21 20 27 ar
22 20 28 1
23 20 33 ar
24 7 21 1
25 21 26 ar
26 7 22 1
27 22 23 1
28 9 23 1
29 24 25 1
30 15 26 ar
31 11 27 ar
32 28 29 1
33 28 32 1
34 29 30 1
35 30 31 1
36 31 32 1
37 16 33 2
@<TRIPOS>SUBSTRUCTURE
1	RES1	1	GROUP	1 ****	RES
