# created with PyMOL 2.5.2
@<TRIPOS>MOLECULE
CDK6_2EUF_TargetProtein
33 37 1                 
SMALL
USER_CHARGES
@<TRIPOS>ATOM
1	  C1	34.468	27.789	59.540	C.3	1	RES1	0.000	
2	  N1	31.493	22.675	63.432	N.2	1	RES1	0.000	
3	  O1	32.505	28.758	60.505	O.2	1	RES1	0.000	
4	  C2	33.121	27.727	60.218	C.2	1	RES1	0.000	
5	  N2	30.214	20.906	62.727	N.pl3	1	RES1	0.000	
6	  C3	32.525	26.403	60.501	C.2	1	RES1	0.000	
7	  N3	27.690	16.644	59.925	N.pl3	1	RES1	0.000	
8	  C4	32.690	25.828	61.707	C.2	1	RES1	0.000	
9	  N4	26.374	14.283	58.897	N.3	1	RES1	0.000	
10	  C5	33.535	26.446	62.819	C.3	1	RES1	0.000	
11	  C6	32.069	24.525	61.953	C.2	1	RES1	0.000	
12	  C7	32.092	23.856	63.175	C.2	1	RES1	0.000	
13	  C8	30.815	22.110	62.426	C.2	1	RES1	0.000	
14	  C9	29.549	19.914	61.957	C.2	1	RES1	0.000	
15	 C10	29.120	20.084	60.647	C.2	1	RES1	0.000	
16	 N10	29.405	18.716	62.579	N.2	1	RES1	0.000	
17	 O10	31.542	26.335	58.357	O.2	1	RES1	0.000	
18	 C11	28.514	19.025	59.980	C.2	1	RES1	0.000	
19	 N11	30.728	22.676	61.175	N.2	1	RES1	0.000	
20	 C12	28.318	17.776	60.592	C.2	1	RES1	0.000	
21	 N12	31.254	24.443	59.655	N.2	1	RES1	0.000	
22	 C13	28.431	15.356	59.842	C.3	1	RES1	0.000	
23	 C14	27.825	14.445	58.769	C.3	1	RES1	0.000	
24	 C49	25.725	15.576	58.844	C.3	1	RES1	0.000	
25	 C50	26.202	16.584	59.916	C.3	1	RES1	0.000	
26	 C51	28.789	17.720	61.897	C.2	1	RES1	0.000	
27	 C52	31.362	23.845	60.947	C.2	1	RES1	0.000	
28	 C53	30.526	23.700	58.597	C.3	1	RES1	0.000	
29	 C54	31.430	23.079	57.510	C.3	1	RES1	0.000	
30	 C55	30.920	23.611	56.191	C.3	1	RES1	0.000	
31	 C56	29.453	23.960	56.475	C.3	1	RES1	0.000	
32	 C57	29.508	24.549	57.862	C.3	1	RES1	0.000	
33	 C58	31.712	25.719	59.406	C.2	1	RES1	0.000	
@<TRIPOS>BOND
1 1 4 1
2 2 12 ar
3 2 13 ar
4 3 4 2
5 4 6 1
6 5 13 1
7 5 14 1
8 6 8 ar
9 6 33 ar
10 7 25 1
11 8 10 1
12 8 11 ar
13 9 24 1
14 11 12 ar
15 14 15 ar
16 15 18 ar
17 14 16 ar
18 16 26 ar
19 17 33 2
20 18 20 ar
21 13 19 ar
22 19 27 ar
23 7 20 1
24 20 26 ar
25 21 27 ar
26 21 28 1
27 21 33 ar
28 7 22 1
29 22 23 1
30 9 23 1
31 24 25 1
32 11 27 ar
33 28 29 1
34 28 32 1
35 29 30 1
36 30 31 1
37 31 32 1
@<TRIPOS>SUBSTRUCTURE
1	RES1	1	GROUP	1 ****	RES
