# created with PyMOL 2.5.2
@<TRIPOS>MOLECULE
PBRM1_6ZS3_TargetProtein
20 22 1                 
SMALL
USER_CHARGES
@<TRIPOS>ATOM
1	  N4	23.672	-5.668	32.882	N.3	1	RES1	0.000	
2	  N5	21.346	-4.100	32.188	N.pl3	1	RES1	0.000	
3	  N6	17.685	-2.230	31.320	N.2	1	RES1	0.000	
4	  N7	18.323	-1.900	32.391	N.2	1	RES1	0.000	
5	  N8	20.149	-1.986	33.830	N.pl3	1	RES1	0.000	
6	  O8	15.472	-2.015	30.030	O.3	1	RES1	0.000	
7	 C31	23.549	-5.026	31.565	C.3	1	RES1	0.000	
8	 C32	22.076	-4.817	31.126	C.3	1	RES1	0.000	
9	 C33	20.095	-3.483	31.882	C.2	1	RES1	0.000	
10	 C34	19.378	-3.811	30.728	C.2	1	RES1	0.000	
11	 C35	18.173	-3.168	30.479	C.2	1	RES1	0.000	
12	 C36	17.310	-3.463	29.310	C.2	1	RES1	0.000	
13	 C37	17.780	-4.343	28.294	C.2	1	RES1	0.000	
14	 C38	16.991	-4.634	27.151	C.2	1	RES1	0.000	
15	 C39	15.732	-4.030	27.014	C.2	1	RES1	0.000	
16	 C40	15.262	-3.185	28.000	C.2	1	RES1	0.000	
17	 C41	16.051	-2.886	29.113	C.2	1	RES1	0.000	
18	 C42	19.527	-2.436	32.660	C.2	1	RES1	0.000	
19	 C43	21.488	-4.669	33.544	C.3	1	RES1	0.000	
20	 C44	22.975	-4.858	33.905	C.3	1	RES1	0.000	
@<TRIPOS>BOND
1 1 20 1
2 3 4 ar
3 1 7 1
4 7 8 1
5 2 8 1
6 2 9 1
7 9 10 ar
8 9 18 ar
9 10 11 ar
10 3 11 ar
11 11 12 1
12 12 13 ar
13 12 17 ar
14 13 14 ar
15 14 15 ar
16 15 16 ar
17 16 17 ar
18 6 17 1
19 4 18 ar
20 5 18 1
21 2 19 1
22 19 20 1
@<TRIPOS>SUBSTRUCTURE
1	RES1	1	GROUP	1 ****	RES
