# created with PyMOL 2.5.2
@<TRIPOS>MOLECULE
CRBN_7BQU_TargetProtein
19 21 1                 
SMALL
USER_CHARGES
@<TRIPOS>ATOM
1	  N2	25.419	17.675	13.136	N.2	1	RES1	0.000	
2	  N3	25.066	19.888	16.055	N.pl3	1	RES1	0.000	
3	  O7	27.396	17.202	11.994	O.2	1	RES1	0.000	
4	  O8	26.368	20.329	17.900	O.2	1	RES1	0.000	
5	  O9	23.737	19.600	14.266	O.2	1	RES1	0.000	
6	 O10	23.106	17.682	13.659	O.2	1	RES1	0.000	
7	 C17	25.551	15.529	10.246	C.2	1	RES1	0.000	
8	 C18	24.484	14.834	9.637	C.2	1	RES1	0.000	
9	 C19	23.176	14.986	10.140	C.2	1	RES1	0.000	
10	 C20	22.929	15.793	11.280	C.2	1	RES1	0.000	
11	 C21	23.996	16.445	11.869	C.2	1	RES1	0.000	
12	 C22	25.302	16.297	11.354	C.2	1	RES1	0.000	
13	 C23	26.181	17.104	12.181	C.2	1	RES1	0.000	
14	 C24	25.937	18.614	14.151	C.3	1	RES1	0.000	
15	 C25	26.841	17.955	15.212	C.3	1	RES1	0.000	
16	 C26	27.373	19.020	16.155	C.3	1	RES1	0.000	
17	 C27	26.246	19.773	16.784	C.2	1	RES1	0.000	
18	 C28	24.803	19.372	14.815	C.2	1	RES1	0.000	
19	 C29	24.082	17.356	13.007	C.2	1	RES1	0.000	
@<TRIPOS>BOND
1 1 13 ar
2 1 14 1
3 1 19 ar
4 6 19 2
5 7 8 ar
6 7 12 ar
7 8 9 ar
8 9 10 ar
9 10 11 ar
10 11 12 ar
11 11 19 ar
12 12 13 ar
13 3 13 2
14 14 15 1
15 14 18 1
16 15 16 1
17 16 17 1
18 2 17 1
19 4 17 2
20 2 18 1
21 5 18 2
@<TRIPOS>SUBSTRUCTURE
1	RES1	1	GROUP	1 ****	RES
