# created with PyMOL 2.5.2
@<TRIPOS>MOLECULE
PBRM1_6ZS3_TargetProtein
20 22 1                 
SMALL
USER_CHARGES
@<TRIPOS>ATOM
1	  N4	23.774	-5.507	32.830	N.3	1	RES1	0.000	
2	  N5	21.263	-4.268	32.220	N.pl3	1	RES1	0.000	
3	  N6	17.752	-2.146	31.275	N.2	1	RES1	0.000	
4	  O6	15.544	-1.899	29.961	O.3	1	RES1	0.000	
5	  N7	18.405	-1.789	32.301	N.2	1	RES1	0.000	
6	  N8	20.111	-2.026	33.877	N.pl3	1	RES1	0.000	
7	 C32	22.937	-4.955	33.912	C.3	1	RES1	0.000	
8	 C33	21.460	-4.937	33.506	C.3	1	RES1	0.000	
9	 C34	20.063	-3.550	31.921	C.2	1	RES1	0.000	
10	 C35	19.297	-3.891	30.822	C.2	1	RES1	0.000	
11	 C36	18.170	-3.184	30.480	C.2	1	RES1	0.000	
12	 C37	17.326	-3.472	29.318	C.2	1	RES1	0.000	
13	 C38	17.695	-4.425	28.335	C.2	1	RES1	0.000	
14	 C39	16.918	-4.728	27.229	C.2	1	RES1	0.000	
15	 C40	15.717	-4.070	27.020	C.2	1	RES1	0.000	
16	 C41	15.278	-3.105	27.948	C.2	1	RES1	0.000	
17	 C42	16.055	-2.839	29.079	C.2	1	RES1	0.000	
18	 C43	19.514	-2.453	32.667	C.2	1	RES1	0.000	
19	 C44	22.136	-4.710	31.132	C.3	1	RES1	0.000	
20	 C45	23.619	-4.750	31.581	C.3	1	RES1	0.000	
@<TRIPOS>BOND
1 1 20 1
2 3 5 ar
3 1 7 1
4 7 8 1
5 2 8 1
6 2 9 1
7 9 10 ar
8 9 18 ar
9 10 11 ar
10 3 11 ar
11 11 12 1
12 12 13 ar
13 12 17 ar
14 13 14 ar
15 14 15 ar
16 15 16 ar
17 16 17 ar
18 4 17 1
19 5 18 ar
20 6 18 1
21 2 19 1
22 19 20 1
@<TRIPOS>SUBSTRUCTURE
1	RES1	1	GROUP	1 ****	RES
