# created with PyMOL 2.5.2
@<TRIPOS>MOLECULE
PBRM1_6ZS3_TargetProtein
20 22 1                 
SMALL
USER_CHARGES
@<TRIPOS>ATOM
1	  N4	23.685	-5.612	32.782	N.3	1	RES1	0.000	
2	  N5	21.316	-4.100	32.258	N.pl3	1	RES1	0.000	
3	  N6	17.703	-2.130	31.295	N.2	1	RES1	0.000	
4	  N7	18.354	-1.761	32.315	N.2	1	RES1	0.000	
5	  O7	15.475	-2.005	29.957	O.3	1	RES1	0.000	
6	  N8	20.174	-1.756	33.782	N.pl3	1	RES1	0.000	
7	 C32	22.406	-5.971	33.434	C.3	1	RES1	0.000	
8	 C33	21.497	-4.731	33.577	C.3	1	RES1	0.000	
9	 C34	20.103	-3.397	31.928	C.2	1	RES1	0.000	
10	 C35	19.381	-3.780	30.815	C.2	1	RES1	0.000	
11	 C36	18.191	-3.145	30.491	C.2	1	RES1	0.000	
12	 C37	17.341	-3.486	29.333	C.2	1	RES1	0.000	
13	 C38	17.792	-4.417	28.371	C.2	1	RES1	0.000	
14	 C39	17.016	-4.770	27.262	C.2	1	RES1	0.000	
15	 C40	15.752	-4.217	27.081	C.2	1	RES1	0.000	
16	 C41	15.277	-3.295	28.028	C.2	1	RES1	0.000	
17	 C42	16.068	-2.938	29.127	C.2	1	RES1	0.000	
18	 C43	19.543	-2.307	32.646	C.2	1	RES1	0.000	
19	 C44	22.533	-3.823	31.481	C.3	1	RES1	0.000	
20	 C45	23.426	-5.066	31.455	C.3	1	RES1	0.000	
@<TRIPOS>BOND
1 1 20 1
2 3 4 ar
3 1 7 1
4 7 8 1
5 2 8 1
6 2 9 1
7 9 10 ar
8 9 18 ar
9 10 11 ar
10 3 11 ar
11 11 12 1
12 12 13 ar
13 12 17 ar
14 13 14 ar
15 14 15 ar
16 15 16 ar
17 16 17 ar
18 5 17 1
19 4 18 ar
20 6 18 1
21 2 19 1
22 19 20 1
@<TRIPOS>SUBSTRUCTURE
1	RES1	1	GROUP	1 ****	RES
