# created with PyMOL 2.5.2
@<TRIPOS>MOLECULE
ER_1GWQ_TargetProtein
17 19 1                 
SMALL
USER_CHARGES
@<TRIPOS>ATOM
1	  S1	4.721	6.786	29.562	S.2	1	RES1	0.000	
2	  O8	10.259	8.292	33.176	O.3	1	RES1	0.000	
3	  O9	1.381	4.035	26.684	O.3	1	RES1	0.000	
4	 C30	6.182	4.674	29.478	C.2	1	RES1	0.000	
5	 C31	6.193	5.959	30.006	C.2	1	RES1	0.000	
6	 C32	7.237	6.601	30.804	C.2	1	RES1	0.000	
7	 C33	8.556	6.130	30.775	C.2	1	RES1	0.000	
8	 C34	9.561	6.709	31.553	C.2	1	RES1	0.000	
9	 C35	9.224	7.745	32.398	C.2	1	RES1	0.000	
10	 C36	7.961	8.233	32.489	C.2	1	RES1	0.000	
11	 C37	6.947	7.658	31.700	C.2	1	RES1	0.000	
12	 C38	4.115	5.433	28.702	C.2	1	RES1	0.000	
13	 C39	2.908	5.375	28.039	C.2	1	RES1	0.000	
14	 C40	2.580	4.178	27.363	C.2	1	RES1	0.000	
15	 C41	3.417	3.093	27.385	C.2	1	RES1	0.000	
16	 C42	4.641	3.162	28.050	C.2	1	RES1	0.000	
17	 C43	5.003	4.356	28.735	C.2	1	RES1	0.000	
@<TRIPOS>BOND
1 1 5 ar
2 1 12 ar
3 4 5 ar
4 4 17 ar
5 5 6 1
6 6 7 ar
7 6 11 ar
8 7 8 ar
9 8 9 ar
10 2 9 1
11 9 10 ar
12 10 11 ar
13 12 13 ar
14 12 17 ar
15 13 14 ar
16 3 14 1
17 14 15 ar
18 15 16 ar
19 16 17 ar
@<TRIPOS>SUBSTRUCTURE
1	RES1	1	GROUP	1 ****	RES
