# created with PyMOL 2.5.2
@<TRIPOS>MOLECULE
ER_1GWQ_TargetProtein
17 19 1                 
SMALL
USER_CHARGES
@<TRIPOS>ATOM
1	  S1	4.733	6.739	29.613	S.2	1	RES1	0.000	
2	  O8	10.223	8.367	33.143	O.3	1	RES1	0.000	
3	  O9	1.376	4.062	26.673	O.3	1	RES1	0.000	
4	 C32	6.169	4.673	29.465	C.2	1	RES1	0.000	
5	 C33	6.172	5.920	30.025	C.2	1	RES1	0.000	
6	 C34	7.228	6.545	30.860	C.2	1	RES1	0.000	
7	 C35	6.940	7.668	31.690	C.2	1	RES1	0.000	
8	 C36	7.971	8.277	32.445	C.2	1	RES1	0.000	
9	 C37	9.264	7.758	32.374	C.2	1	RES1	0.000	
10	 C38	9.582	6.682	31.580	C.2	1	RES1	0.000	
11	 C39	8.565	6.076	30.813	C.2	1	RES1	0.000	
12	 C40	4.112	5.435	28.698	C.2	1	RES1	0.000	
13	 C41	2.889	5.369	28.030	C.2	1	RES1	0.000	
14	 C42	2.568	4.207	27.367	C.2	1	RES1	0.000	
15	 C43	3.439	3.104	27.352	C.2	1	RES1	0.000	
16	 C44	4.652	3.183	28.038	C.2	1	RES1	0.000	
17	 C45	5.004	4.356	28.737	C.2	1	RES1	0.000	
@<TRIPOS>BOND
1 1 5 ar
2 1 12 ar
3 4 5 ar
4 4 17 ar
5 5 6 1
6 6 7 ar
7 6 11 ar
8 7 8 ar
9 8 9 ar
10 2 9 1
11 9 10 ar
12 10 11 ar
13 12 13 ar
14 12 17 ar
15 13 14 ar
16 3 14 1
17 14 15 ar
18 15 16 ar
19 16 17 ar
@<TRIPOS>SUBSTRUCTURE
1	RES1	1	GROUP	1 ****	RES
