# created with PyMOL 2.5.2
@<TRIPOS>MOLECULE
ER_1GWQ_TargetProtein
17 19 1                 
SMALL
USER_CHARGES
@<TRIPOS>ATOM
1	  S1	4.742	6.745	29.602	S.2	1	RES1	0.000	
2	  O8	10.270	8.345	33.131	O.3	1	RES1	0.000	
3	  O9	1.394	4.081	26.692	O.3	1	RES1	0.000	
4	 C33	6.174	4.645	29.467	C.2	1	RES1	0.000	
5	 C34	6.181	5.930	30.019	C.2	1	RES1	0.000	
6	 C35	7.240	6.547	30.872	C.2	1	RES1	0.000	
7	 C36	8.560	6.089	30.842	C.2	1	RES1	0.000	
8	 C37	9.529	6.684	31.592	C.2	1	RES1	0.000	
9	 C38	9.249	7.785	32.375	C.2	1	RES1	0.000	
10	 C39	7.954	8.282	32.423	C.2	1	RES1	0.000	
11	 C40	6.936	7.655	31.681	C.2	1	RES1	0.000	
12	 C41	4.118	5.422	28.707	C.2	1	RES1	0.000	
13	 C42	2.876	5.361	28.040	C.2	1	RES1	0.000	
14	 C43	2.583	4.199	27.374	C.2	1	RES1	0.000	
15	 C44	3.431	3.111	27.349	C.2	1	RES1	0.000	
16	 C45	4.647	3.199	28.007	C.2	1	RES1	0.000	
17	 C46	5.003	4.343	28.726	C.2	1	RES1	0.000	
@<TRIPOS>BOND
1 1 5 ar
2 1 12 ar
3 4 5 ar
4 4 17 ar
5 5 6 1
6 6 7 ar
7 6 11 ar
8 7 8 ar
9 8 9 ar
10 2 9 1
11 9 10 ar
12 10 11 ar
13 12 13 ar
14 12 17 ar
15 13 14 ar
16 3 14 1
17 14 15 ar
18 15 16 ar
19 16 17 ar
@<TRIPOS>SUBSTRUCTURE
1	RES1	1	GROUP	1 ****	RES
