# created with PyMOL 2.5.2
@<TRIPOS>MOLECULE
ER_1GWQ_TargetProtein
17 19 1                 
SMALL
USER_CHARGES
@<TRIPOS>ATOM
1	  S1	4.729	6.753	29.612	S.2	1	RES1	0.000	
2	  O8	10.254	8.337	33.125	O.3	1	RES1	0.000	
3	  O9	1.390	4.076	26.682	O.3	1	RES1	0.000	
4	 C34	6.151	4.649	29.479	C.2	1	RES1	0.000	
5	 C35	6.190	5.928	30.037	C.2	1	RES1	0.000	
6	 C36	7.236	6.544	30.860	C.2	1	RES1	0.000	
7	 C37	8.534	6.096	30.819	C.2	1	RES1	0.000	
8	 C38	9.567	6.686	31.573	C.2	1	RES1	0.000	
9	 C39	9.249	7.759	32.375	C.2	1	RES1	0.000	
10	 C40	7.951	8.279	32.443	C.2	1	RES1	0.000	
11	 C41	6.942	7.685	31.703	C.2	1	RES1	0.000	
12	 C42	4.128	5.436	28.686	C.2	1	RES1	0.000	
13	 C43	2.884	5.352	28.036	C.2	1	RES1	0.000	
14	 C44	2.569	4.202	27.366	C.2	1	RES1	0.000	
15	 C45	3.450	3.097	27.367	C.2	1	RES1	0.000	
16	 C46	4.649	3.196	28.022	C.2	1	RES1	0.000	
17	 C47	5.011	4.344	28.718	C.2	1	RES1	0.000	
@<TRIPOS>BOND
1 1 5 ar
2 1 12 ar
3 4 5 ar
4 4 17 ar
5 5 6 1
6 6 7 ar
7 6 11 ar
8 7 8 ar
9 8 9 ar
10 2 9 1
11 9 10 ar
12 10 11 ar
13 12 13 ar
14 12 17 ar
15 13 14 ar
16 3 14 1
17 14 15 ar
18 15 16 ar
19 16 17 ar
@<TRIPOS>SUBSTRUCTURE
1	RES1	1	GROUP	1 ****	RES
