# created with PyMOL 2.5.2
@<TRIPOS>MOLECULE
ER_1GWQ_TargetProtein
17 19 1                 
SMALL
USER_CHARGES
@<TRIPOS>ATOM
1	  S1	4.701	6.736	29.620	S.2	1	RES1	0.000	
2	  O8	10.248	8.300	33.177	O.3	1	RES1	0.000	
3	  O9	1.376	4.029	26.714	O.3	1	RES1	0.000	
4	 C35	6.203	4.682	29.437	C.2	1	RES1	0.000	
5	 C36	6.193	5.957	29.993	C.2	1	RES1	0.000	
6	 C37	7.251	6.603	30.797	C.2	1	RES1	0.000	
7	 C38	6.958	7.721	31.631	C.2	1	RES1	0.000	
8	 C39	7.964	8.298	32.417	C.2	1	RES1	0.000	
9	 C40	9.246	7.734	32.406	C.2	1	RES1	0.000	
10	 C41	9.534	6.643	31.630	C.2	1	RES1	0.000	
11	 C42	8.554	6.077	30.854	C.2	1	RES1	0.000	
12	 C43	4.095	5.412	28.723	C.2	1	RES1	0.000	
13	 C44	2.869	5.357	28.068	C.2	1	RES1	0.000	
14	 C45	2.565	4.175	27.380	C.2	1	RES1	0.000	
15	 C46	3.430	3.122	27.349	C.2	1	RES1	0.000	
16	 C47	4.677	3.212	28.004	C.2	1	RES1	0.000	
17	 C48	5.023	4.365	28.701	C.2	1	RES1	0.000	
@<TRIPOS>BOND
1 1 5 ar
2 1 12 ar
3 4 5 ar
4 4 17 ar
5 5 6 1
6 6 7 ar
7 6 11 ar
8 7 8 ar
9 8 9 ar
10 2 9 1
11 9 10 ar
12 10 11 ar
13 12 13 ar
14 12 17 ar
15 13 14 ar
16 3 14 1
17 14 15 ar
18 15 16 ar
19 16 17 ar
@<TRIPOS>SUBSTRUCTURE
1	RES1	1	GROUP	1 ****	RES
