# created with PyMOL 2.5.2
@<TRIPOS>MOLECULE
ER_1GWQ_TargetProtein
17 19 1                 
SMALL
USER_CHARGES
@<TRIPOS>ATOM
1	  S1	4.700	6.758	29.607	S.2	1	RES1	0.000	
2	  O8	10.254	8.307	33.168	O.3	1	RES1	0.000	
3	  O9	1.370	4.029	26.708	O.3	1	RES1	0.000	
4	 C36	6.190	4.684	29.451	C.2	1	RES1	0.000	
5	 C37	6.205	5.939	29.999	C.2	1	RES1	0.000	
6	 C38	7.233	6.590	30.800	C.2	1	RES1	0.000	
7	 C39	6.973	7.718	31.630	C.2	1	RES1	0.000	
8	 C40	7.964	8.295	32.438	C.2	1	RES1	0.000	
9	 C41	9.235	7.756	32.409	C.2	1	RES1	0.000	
10	 C42	9.544	6.632	31.629	C.2	1	RES1	0.000	
11	 C43	8.557	6.082	30.842	C.2	1	RES1	0.000	
12	 C44	4.108	5.422	28.717	C.2	1	RES1	0.000	
13	 C45	2.864	5.352	28.067	C.2	1	RES1	0.000	
14	 C46	2.563	4.183	27.390	C.2	1	RES1	0.000	
15	 C47	3.455	3.115	27.343	C.2	1	RES1	0.000	
16	 C48	4.669	3.192	27.986	C.2	1	RES1	0.000	
17	 C49	5.000	4.369	28.718	C.2	1	RES1	0.000	
@<TRIPOS>BOND
1 1 5 ar
2 1 12 ar
3 4 5 ar
4 4 17 ar
5 5 6 1
6 6 7 ar
7 6 11 ar
8 7 8 ar
9 8 9 ar
10 2 9 1
11 9 10 ar
12 10 11 ar
13 12 13 ar
14 12 17 ar
15 13 14 ar
16 3 14 1
17 14 15 ar
18 15 16 ar
19 16 17 ar
@<TRIPOS>SUBSTRUCTURE
1	RES1	1	GROUP	1 ****	RES
