# created with PyMOL 2.5.2
@<TRIPOS>MOLECULE
ER_1GWQ_TargetProtein
17 19 1                 
SMALL
USER_CHARGES
@<TRIPOS>ATOM
1	  S1	4.733	6.773	29.613	S.2	1	RES1	0.000	
2	  O9	10.237	8.400	33.119	O.3	1	RES1	0.000	
3	 O10	1.388	4.074	26.678	O.3	1	RES1	0.000	
4	 C32	6.191	4.640	29.494	C.2	1	RES1	0.000	
5	 C33	6.183	5.902	30.046	C.2	1	RES1	0.000	
6	 C34	7.213	6.544	30.876	C.2	1	RES1	0.000	
7	 C35	6.967	7.660	31.696	C.2	1	RES1	0.000	
8	 C36	7.964	8.252	32.427	C.2	1	RES1	0.000	
9	 C37	9.245	7.758	32.380	C.2	1	RES1	0.000	
10	 C38	9.556	6.690	31.570	C.2	1	RES1	0.000	
11	 C39	8.555	6.068	30.818	C.2	1	RES1	0.000	
12	 C40	4.111	5.421	28.703	C.2	1	RES1	0.000	
13	 C41	2.885	5.381	28.031	C.2	1	RES1	0.000	
14	 C42	2.584	4.206	27.355	C.2	1	RES1	0.000	
15	 C43	3.432	3.102	27.357	C.2	1	RES1	0.000	
16	 C44	4.651	3.199	28.024	C.2	1	RES1	0.000	
17	 C45	4.992	4.352	28.716	C.2	1	RES1	0.000	
@<TRIPOS>BOND
1 1 5 ar
2 1 12 ar
3 3 14 1
4 4 5 ar
5 4 17 ar
6 5 6 1
7 6 7 ar
8 6 11 ar
9 7 8 ar
10 8 9 ar
11 2 9 1
12 9 10 ar
13 10 11 ar
14 12 13 ar
15 12 17 ar
16 13 14 ar
17 14 15 ar
18 15 16 ar
19 16 17 ar
@<TRIPOS>SUBSTRUCTURE
1	RES1	1	GROUP	1 ****	RES
