# created with PyMOL 2.5.2
@<TRIPOS>MOLECULE
ER_1GWQ_TargetProtein
17 19 1                 
SMALL
USER_CHARGES
@<TRIPOS>ATOM
1	  S1	4.721	6.743	29.635	S.2	1	RES1	0.000	
2	 O10	10.254	8.290	33.169	O.3	1	RES1	0.000	
3	 O11	1.361	4.036	26.710	O.3	1	RES1	0.000	
4	 C34	6.192	4.698	29.441	C.2	1	RES1	0.000	
5	 C35	6.193	5.954	30.005	C.2	1	RES1	0.000	
6	 C36	7.238	6.605	30.789	C.2	1	RES1	0.000	
7	 C37	6.968	7.707	31.633	C.2	1	RES1	0.000	
8	 C38	7.962	8.315	32.400	C.2	1	RES1	0.000	
9	 C39	9.250	7.744	32.413	C.2	1	RES1	0.000	
10	 C40	9.541	6.652	31.643	C.2	1	RES1	0.000	
11	 C41	8.530	6.061	30.858	C.2	1	RES1	0.000	
12	 C42	4.101	5.439	28.733	C.2	1	RES1	0.000	
13	 C43	2.869	5.341	28.078	C.2	1	RES1	0.000	
14	 C44	2.570	4.178	27.388	C.2	1	RES1	0.000	
15	 C45	3.447	3.096	27.336	C.2	1	RES1	0.000	
16	 C46	4.668	3.195	27.981	C.2	1	RES1	0.000	
17	 C47	5.022	4.364	28.695	C.2	1	RES1	0.000	
@<TRIPOS>BOND
1 1 5 ar
2 1 12 ar
3 2 9 1
4 3 14 1
5 4 5 ar
6 4 17 ar
7 5 6 1
8 6 7 ar
9 6 11 ar
10 7 8 ar
11 8 9 ar
12 9 10 ar
13 10 11 ar
14 12 13 ar
15 12 17 ar
16 13 14 ar
17 14 15 ar
18 15 16 ar
19 16 17 ar
@<TRIPOS>SUBSTRUCTURE
1	RES1	1	GROUP	1 ****	RES
