# created with PyMOL 2.5.2
@<TRIPOS>MOLECULE
CRBN_7BQU_TargetProtein
19 21 1                 
SMALL
USER_CHARGES
@<TRIPOS>ATOM
1	  N4	25.417	17.693	13.143	N.2	1	RES1	0.000	
2	  N5	25.076	19.921	16.066	N.pl3	1	RES1	0.000	
3	  O7	23.103	17.681	13.663	O.2	1	RES1	0.000	
4	  O8	26.338	20.270	17.904	O.2	1	RES1	0.000	
5	  O9	23.754	19.633	14.246	O.2	1	RES1	0.000	
6	 O10	27.400	17.235	11.943	O.2	1	RES1	0.000	
7	 C18	24.468	14.831	9.662	C.2	1	RES1	0.000	
8	 C19	23.166	14.975	10.187	C.2	1	RES1	0.000	
9	 C20	22.937	15.787	11.310	C.2	1	RES1	0.000	
10	 C21	24.031	16.422	11.868	C.2	1	RES1	0.000	
11	 C22	24.101	17.331	13.011	C.2	1	RES1	0.000	
12	 C23	25.962	18.619	14.138	C.3	1	RES1	0.000	
13	 C24	26.823	17.949	15.196	C.3	1	RES1	0.000	
14	 C25	27.352	18.973	16.166	C.3	1	RES1	0.000	
15	 C26	26.214	19.768	16.806	C.2	1	RES1	0.000	
16	 C27	24.828	19.411	14.806	C.2	1	RES1	0.000	
17	 C28	26.190	17.128	12.138	C.2	1	RES1	0.000	
18	 C29	25.287	16.306	11.347	C.2	1	RES1	0.000	
19	 C30	25.548	15.521	10.240	C.2	1	RES1	0.000	
@<TRIPOS>BOND
1 6 17 2
2 7 8 ar
3 7 19 ar
4 8 9 ar
5 9 10 ar
6 10 11 ar
7 10 18 ar
8 1 11 ar
9 3 11 2
10 1 12 1
11 12 13 1
12 12 16 1
13 13 14 1
14 14 15 1
15 2 15 1
16 4 15 2
17 2 16 1
18 5 16 2
19 1 17 ar
20 17 18 ar
21 18 19 ar
@<TRIPOS>SUBSTRUCTURE
1	RES1	1	GROUP	1 ****	RES
