# created with PyMOL 2.5.2
@<TRIPOS>MOLECULE
ER_1GWQ_TargetProtein
17 19 1                 
SMALL
USER_CHARGES
@<TRIPOS>ATOM
1	  S1	4.716	6.745	29.609	S.2	1	RES1	0.000	
2	 O11	10.249	8.302	33.176	O.3	1	RES1	0.000	
3	 O12	1.370	4.041	26.723	O.3	1	RES1	0.000	
4	 C36	6.170	4.684	29.436	C.2	1	RES1	0.000	
5	 C37	6.193	5.937	30.002	C.2	1	RES1	0.000	
6	 C38	7.248	6.603	30.808	C.2	1	RES1	0.000	
7	 C39	6.955	7.703	31.630	C.2	1	RES1	0.000	
8	 C40	7.973	8.296	32.423	C.2	1	RES1	0.000	
9	 C41	9.229	7.744	32.405	C.2	1	RES1	0.000	
10	 C42	9.538	6.659	31.616	C.2	1	RES1	0.000	
11	 C43	8.551	6.060	30.850	C.2	1	RES1	0.000	
12	 C44	4.104	5.443	28.708	C.2	1	RES1	0.000	
13	 C45	2.869	5.353	28.079	C.2	1	RES1	0.000	
14	 C46	2.566	4.182	27.376	C.2	1	RES1	0.000	
15	 C47	3.451	3.095	27.344	C.2	1	RES1	0.000	
16	 C48	4.674	3.209	28.016	C.2	1	RES1	0.000	
17	 C49	5.032	4.364	28.704	C.2	1	RES1	0.000	
@<TRIPOS>BOND
1 1 5 ar
2 1 12 ar
3 2 9 1
4 3 14 1
5 4 5 ar
6 4 17 ar
7 5 6 1
8 6 7 ar
9 6 11 ar
10 7 8 ar
11 8 9 ar
12 9 10 ar
13 10 11 ar
14 12 13 ar
15 12 17 ar
16 13 14 ar
17 14 15 ar
18 15 16 ar
19 16 17 ar
@<TRIPOS>SUBSTRUCTURE
1	RES1	1	GROUP	1 ****	RES
