# created with PyMOL 2.5.2
@<TRIPOS>MOLECULE
ER_1GWQ_TargetProtein
17 19 1                 
SMALL
USER_CHARGES
@<TRIPOS>ATOM
1	  S1	4.737	6.752	29.623	S.2	1	RES1	0.000	
2	 O12	10.248	8.303	33.174	O.3	1	RES1	0.000	
3	 O13	1.359	4.037	26.718	O.3	1	RES1	0.000	
4	 C38	6.187	4.667	29.441	C.2	1	RES1	0.000	
5	 C39	6.183	5.944	30.010	C.2	1	RES1	0.000	
6	 C40	7.227	6.597	30.797	C.2	1	RES1	0.000	
7	 C41	6.976	7.703	31.642	C.2	1	RES1	0.000	
8	 C42	7.956	8.294	32.430	C.2	1	RES1	0.000	
9	 C43	9.254	7.752	32.416	C.2	1	RES1	0.000	
10	 C44	9.530	6.655	31.616	C.2	1	RES1	0.000	
11	 C45	8.536	6.076	30.826	C.2	1	RES1	0.000	
12	 C46	4.103	5.429	28.706	C.2	1	RES1	0.000	
13	 C47	2.879	5.362	28.053	C.2	1	RES1	0.000	
14	 C48	2.576	4.182	27.388	C.2	1	RES1	0.000	
15	 C49	3.449	3.095	27.369	C.2	1	RES1	0.000	
16	 C50	4.671	3.206	27.997	C.2	1	RES1	0.000	
17	 C51	5.017	4.369	28.697	C.2	1	RES1	0.000	
@<TRIPOS>BOND
1 1 5 ar
2 1 12 ar
3 2 9 1
4 3 14 1
5 4 5 ar
6 4 17 ar
7 5 6 1
8 6 7 ar
9 6 11 ar
10 7 8 ar
11 8 9 ar
12 9 10 ar
13 10 11 ar
14 12 13 ar
15 12 17 ar
16 13 14 ar
17 14 15 ar
18 15 16 ar
19 16 17 ar
@<TRIPOS>SUBSTRUCTURE
1	RES1	1	GROUP	1 ****	RES
