# created with PyMOL 2.5.2
@<TRIPOS>MOLECULE
ER_1GWQ_TargetProtein
17 19 1                 
SMALL
USER_CHARGES
@<TRIPOS>ATOM
1	  S1	4.754	6.764	29.596	S.2	1	RES1	0.000	
2	 O13	10.235	8.383	33.142	O.3	1	RES1	0.000	
3	 O14	1.376	4.091	26.662	O.3	1	RES1	0.000	
4	 C40	6.169	4.643	29.479	C.2	1	RES1	0.000	
5	 C41	6.194	5.912	30.047	C.2	1	RES1	0.000	
6	 C42	7.217	6.526	30.854	C.2	1	RES1	0.000	
7	 C43	8.562	6.089	30.809	C.2	1	RES1	0.000	
8	 C44	9.582	6.687	31.539	C.2	1	RES1	0.000	
9	 C45	9.245	7.767	32.386	C.2	1	RES1	0.000	
10	 C46	7.945	8.262	32.447	C.2	1	RES1	0.000	
11	 C47	6.941	7.659	31.696	C.2	1	RES1	0.000	
12	 C48	4.118	5.430	28.712	C.2	1	RES1	0.000	
13	 C49	2.877	5.375	28.029	C.2	1	RES1	0.000	
14	 C50	2.574	4.197	27.367	C.2	1	RES1	0.000	
15	 C51	3.435	3.114	27.359	C.2	1	RES1	0.000	
16	 C52	4.651	3.177	28.052	C.2	1	RES1	0.000	
17	 C53	5.010	4.344	28.729	C.2	1	RES1	0.000	
@<TRIPOS>BOND
1 1 5 ar
2 1 12 ar
3 2 9 1
4 3 14 1
5 4 5 ar
6 4 17 ar
7 5 6 1
8 6 7 ar
9 6 11 ar
10 7 8 ar
11 8 9 ar
12 9 10 ar
13 10 11 ar
14 12 13 ar
15 12 17 ar
16 13 14 ar
17 14 15 ar
18 15 16 ar
19 16 17 ar
@<TRIPOS>SUBSTRUCTURE
1	RES1	1	GROUP	1 ****	RES
