# created with PyMOL 2.5.2
@<TRIPOS>MOLECULE
ER_1GWQ_TargetProtein
17 19 1                 
SMALL
USER_CHARGES
@<TRIPOS>ATOM
1	  S1	4.739	6.771	29.590	S.2	1	RES1	0.000	
2	 O14	10.227	8.331	33.175	O.3	1	RES1	0.000	
3	 O15	1.387	4.051	26.685	O.3	1	RES1	0.000	
4	 C42	6.169	4.683	29.462	C.2	1	RES1	0.000	
5	 C43	6.203	5.961	29.991	C.2	1	RES1	0.000	
6	 C44	7.238	6.577	30.812	C.2	1	RES1	0.000	
7	 C45	8.562	6.108	30.796	C.2	1	RES1	0.000	
8	 C46	9.546	6.677	31.562	C.2	1	RES1	0.000	
9	 C47	9.258	7.739	32.419	C.2	1	RES1	0.000	
10	 C48	7.960	8.261	32.470	C.2	1	RES1	0.000	
11	 C49	6.957	7.661	31.665	C.2	1	RES1	0.000	
12	 C50	4.109	5.427	28.716	C.2	1	RES1	0.000	
13	 C51	2.872	5.364	28.045	C.2	1	RES1	0.000	
14	 C52	2.568	4.174	27.373	C.2	1	RES1	0.000	
15	 C53	3.428	3.103	27.367	C.2	1	RES1	0.000	
16	 C54	4.644	3.165	28.050	C.2	1	RES1	0.000	
17	 C55	5.019	4.366	28.724	C.2	1	RES1	0.000	
@<TRIPOS>BOND
1 1 5 ar
2 1 12 ar
3 2 9 1
4 3 14 1
5 4 5 ar
6 4 17 ar
7 5 6 1
8 6 7 ar
9 6 11 ar
10 7 8 ar
11 8 9 ar
12 9 10 ar
13 10 11 ar
14 12 13 ar
15 12 17 ar
16 13 14 ar
17 14 15 ar
18 15 16 ar
19 16 17 ar
@<TRIPOS>SUBSTRUCTURE
1	RES1	1	GROUP	1 ****	RES
