# created with PyMOL 2.5.2
@<TRIPOS>MOLECULE
ER_1GWQ_TargetProtein
17 19 1                 
SMALL
USER_CHARGES
@<TRIPOS>ATOM
1	  S1	4.730	6.767	29.569	S.2	1	RES1	0.000	
2	  O7	10.256	8.289	33.158	O.3	1	RES1	0.000	
3	  O8	1.398	4.044	26.675	O.3	1	RES1	0.000	
4	 C29	6.166	4.666	29.483	C.2	1	RES1	0.000	
5	 C30	6.195	5.937	30.013	C.2	1	RES1	0.000	
6	 C31	7.232	6.601	30.823	C.2	1	RES1	0.000	
7	 C32	8.554	6.144	30.779	C.2	1	RES1	0.000	
8	 C33	9.568	6.707	31.549	C.2	1	RES1	0.000	
9	 C34	9.251	7.742	32.398	C.2	1	RES1	0.000	
10	 C35	7.949	8.242	32.487	C.2	1	RES1	0.000	
11	 C36	6.941	7.661	31.700	C.2	1	RES1	0.000	
12	 C37	4.112	5.448	28.701	C.2	1	RES1	0.000	
13	 C38	2.897	5.369	28.027	C.2	1	RES1	0.000	
14	 C39	2.577	4.176	27.372	C.2	1	RES1	0.000	
15	 C40	3.447	3.089	27.385	C.2	1	RES1	0.000	
16	 C41	4.631	3.188	28.056	C.2	1	RES1	0.000	
17	 C42	4.981	4.352	28.730	C.2	1	RES1	0.000	
@<TRIPOS>BOND
1 1 5 ar
2 1 12 ar
3 4 5 ar
4 4 17 ar
5 5 6 1
6 6 7 ar
7 6 11 ar
8 7 8 ar
9 8 9 ar
10 2 9 1
11 9 10 ar
12 10 11 ar
13 12 13 ar
14 12 17 ar
15 13 14 ar
16 3 14 1
17 14 15 ar
18 15 16 ar
19 16 17 ar
@<TRIPOS>SUBSTRUCTURE
1	RES1	1	GROUP	1 ****	RES
