# created with PyMOL 2.5.2
@<TRIPOS>MOLECULE
ER_1GWQ_TargetProtein
17 19 1                 
SMALL
USER_CHARGES
@<TRIPOS>ATOM
1	  S1	4.734	6.781	29.577	S.2	1	RES1	0.000	
2	  O7	10.260	8.319	33.173	O.3	1	RES1	0.000	
3	  O8	1.375	4.049	26.684	O.3	1	RES1	0.000	
4	 C31	6.184	4.659	29.475	C.2	1	RES1	0.000	
5	 C32	6.194	5.942	29.999	C.2	1	RES1	0.000	
6	 C33	7.229	6.611	30.810	C.2	1	RES1	0.000	
7	 C34	8.572	6.124	30.768	C.2	1	RES1	0.000	
8	 C35	9.552	6.693	31.561	C.2	1	RES1	0.000	
9	 C36	9.260	7.749	32.407	C.2	1	RES1	0.000	
10	 C37	7.942	8.227	32.490	C.2	1	RES1	0.000	
11	 C38	6.940	7.656	31.701	C.2	1	RES1	0.000	
12	 C39	4.110	5.436	28.688	C.2	1	RES1	0.000	
13	 C40	2.897	5.366	28.013	C.2	1	RES1	0.000	
14	 C41	2.563	4.191	27.376	C.2	1	RES1	0.000	
15	 C42	3.439	3.074	27.391	C.2	1	RES1	0.000	
16	 C43	4.648	3.178	28.063	C.2	1	RES1	0.000	
17	 C44	4.987	4.367	28.726	C.2	1	RES1	0.000	
@<TRIPOS>BOND
1 1 5 ar
2 1 12 ar
3 4 5 ar
4 4 17 ar
5 5 6 1
6 6 7 ar
7 6 11 ar
8 7 8 ar
9 8 9 ar
10 2 9 1
11 9 10 ar
12 10 11 ar
13 12 13 ar
14 12 17 ar
15 13 14 ar
16 3 14 1
17 14 15 ar
18 15 16 ar
19 16 17 ar
@<TRIPOS>SUBSTRUCTURE
1	RES1	1	GROUP	1 ****	RES
