# created with PyMOL 2.5.2
@<TRIPOS>MOLECULE
ER_1GWQ_TargetProtein
17 19 1                 
SMALL
USER_CHARGES
@<TRIPOS>ATOM
1	  S1	4.731	6.748	29.617	S.2	1	RES1	0.000	
2	  O7	10.286	8.378	33.076	O.3	1	RES1	0.000	
3	  O8	1.415	4.076	26.643	O.3	1	RES1	0.000	
4	 C32	6.156	4.647	29.493	C.2	1	RES1	0.000	
5	 C33	6.154	5.897	30.054	C.2	1	RES1	0.000	
6	 C34	7.186	6.558	30.879	C.2	1	RES1	0.000	
7	 C35	6.956	7.676	31.715	C.2	1	RES1	0.000	
8	 C36	7.964	8.269	32.461	C.2	1	RES1	0.000	
9	 C37	9.267	7.760	32.387	C.2	1	RES1	0.000	
10	 C38	9.574	6.685	31.552	C.2	1	RES1	0.000	
11	 C39	8.513	6.086	30.821	C.2	1	RES1	0.000	
12	 C40	4.109	5.426	28.719	C.2	1	RES1	0.000	
13	 C41	2.888	5.380	28.035	C.2	1	RES1	0.000	
14	 C42	2.587	4.201	27.336	C.2	1	RES1	0.000	
15	 C43	3.443	3.106	27.356	C.2	1	RES1	0.000	
16	 C44	4.643	3.180	28.030	C.2	1	RES1	0.000	
17	 C45	5.015	4.350	28.731	C.2	1	RES1	0.000	
@<TRIPOS>BOND
1 1 5 ar
2 1 12 ar
3 4 5 ar
4 4 17 ar
5 5 6 1
6 6 7 ar
7 6 11 ar
8 7 8 ar
9 8 9 ar
10 2 9 1
11 9 10 ar
12 10 11 ar
13 12 13 ar
14 12 17 ar
15 13 14 ar
16 3 14 1
17 14 15 ar
18 15 16 ar
19 16 17 ar
@<TRIPOS>SUBSTRUCTURE
1	RES1	1	GROUP	1 ****	RES
