# created with PyMOL 2.5.2
@<TRIPOS>MOLECULE
ER_1GWQ_TargetProtein
17 19 1                 
SMALL
USER_CHARGES
@<TRIPOS>ATOM
1	  S1	4.729	6.749	29.637	S.2	1	RES1	0.000	
2	  O7	10.288	8.366	33.114	O.3	1	RES1	0.000	
3	  O8	1.381	4.074	26.661	O.3	1	RES1	0.000	
4	 C33	6.172	4.623	29.479	C.2	1	RES1	0.000	
5	 C34	6.195	5.900	30.030	C.2	1	RES1	0.000	
6	 C35	7.235	6.545	30.894	C.2	1	RES1	0.000	
7	 C36	6.937	7.674	31.681	C.2	1	RES1	0.000	
8	 C37	7.957	8.301	32.413	C.2	1	RES1	0.000	
9	 C38	9.250	7.794	32.383	C.2	1	RES1	0.000	
10	 C39	9.560	6.678	31.612	C.2	1	RES1	0.000	
11	 C40	8.537	6.075	30.836	C.2	1	RES1	0.000	
12	 C41	4.090	5.420	28.709	C.2	1	RES1	0.000	
13	 C42	2.885	5.365	28.040	C.2	1	RES1	0.000	
14	 C43	2.574	4.213	27.383	C.2	1	RES1	0.000	
15	 C44	3.437	3.123	27.338	C.2	1	RES1	0.000	
16	 C45	4.648	3.182	28.006	C.2	1	RES1	0.000	
17	 C46	5.011	4.341	28.688	C.2	1	RES1	0.000	
@<TRIPOS>BOND
1 1 5 ar
2 1 12 ar
3 4 5 ar
4 4 17 ar
5 5 6 1
6 6 7 ar
7 6 11 ar
8 7 8 ar
9 8 9 ar
10 2 9 1
11 9 10 ar
12 10 11 ar
13 12 13 ar
14 12 17 ar
15 13 14 ar
16 3 14 1
17 14 15 ar
18 15 16 ar
19 16 17 ar
@<TRIPOS>SUBSTRUCTURE
1	RES1	1	GROUP	1 ****	RES
