# created with PyMOL 2.5.2
@<TRIPOS>MOLECULE
ER_1GWQ_TargetProtein
17 19 1                 
SMALL
USER_CHARGES
@<TRIPOS>ATOM
1	  S1	4.743	6.753	29.617	S.2	1	RES1	0.000	
2	  O7	10.287	8.354	33.122	O.3	1	RES1	0.000	
3	  O8	1.401	4.078	26.644	O.3	1	RES1	0.000	
4	 C34	6.169	4.637	29.468	C.2	1	RES1	0.000	
5	 C35	6.198	5.920	30.049	C.2	1	RES1	0.000	
6	 C36	7.208	6.536	30.876	C.2	1	RES1	0.000	
7	 C37	6.939	7.657	31.687	C.2	1	RES1	0.000	
8	 C38	7.962	8.275	32.447	C.2	1	RES1	0.000	
9	 C39	9.241	7.786	32.379	C.2	1	RES1	0.000	
10	 C40	9.556	6.710	31.580	C.2	1	RES1	0.000	
11	 C41	8.550	6.095	30.801	C.2	1	RES1	0.000	
12	 C42	4.108	5.413	28.740	C.2	1	RES1	0.000	
13	 C43	2.889	5.390	28.030	C.2	1	RES1	0.000	
14	 C44	2.576	4.200	27.358	C.2	1	RES1	0.000	
15	 C45	3.424	3.095	27.349	C.2	1	RES1	0.000	
16	 C46	4.640	3.176	28.033	C.2	1	RES1	0.000	
17	 C47	4.994	4.346	28.723	C.2	1	RES1	0.000	
@<TRIPOS>BOND
1 1 5 ar
2 1 12 ar
3 4 5 ar
4 4 17 ar
5 5 6 1
6 6 7 ar
7 6 11 ar
8 7 8 ar
9 8 9 ar
10 2 9 1
11 9 10 ar
12 10 11 ar
13 12 13 ar
14 12 17 ar
15 13 14 ar
16 3 14 1
17 14 15 ar
18 15 16 ar
19 16 17 ar
@<TRIPOS>SUBSTRUCTURE
1	RES1	1	GROUP	1 ****	RES
