# created with PyMOL 2.5.2
@<TRIPOS>MOLECULE
ER_1GWQ_TargetProtein
17 19 1                 
SMALL
USER_CHARGES
@<TRIPOS>ATOM
1	  S1	4.740	6.756	29.619	S.2	1	RES1	0.000	
2	  O7	10.254	8.319	33.162	O.3	1	RES1	0.000	
3	  O8	1.358	4.040	26.702	O.3	1	RES1	0.000	
4	 C35	6.179	4.671	29.439	C.2	1	RES1	0.000	
5	 C36	6.177	5.935	30.015	C.2	1	RES1	0.000	
6	 C37	7.242	6.605	30.808	C.2	1	RES1	0.000	
7	 C38	6.977	7.704	31.656	C.2	1	RES1	0.000	
8	 C39	7.944	8.269	32.440	C.2	1	RES1	0.000	
9	 C40	9.232	7.750	32.408	C.2	1	RES1	0.000	
10	 C41	9.559	6.653	31.619	C.2	1	RES1	0.000	
11	 C42	8.557	6.088	30.818	C.2	1	RES1	0.000	
12	 C43	4.102	5.442	28.711	C.2	1	RES1	0.000	
13	 C44	2.884	5.364	28.042	C.2	1	RES1	0.000	
14	 C45	2.546	4.164	27.370	C.2	1	RES1	0.000	
15	 C46	3.462	3.102	27.358	C.2	1	RES1	0.000	
16	 C47	4.648	3.200	28.023	C.2	1	RES1	0.000	
17	 C48	5.024	4.361	28.712	C.2	1	RES1	0.000	
@<TRIPOS>BOND
1 1 5 ar
2 1 12 ar
3 4 5 ar
4 4 17 ar
5 5 6 1
6 6 7 ar
7 6 11 ar
8 7 8 ar
9 8 9 ar
10 2 9 1
11 9 10 ar
12 10 11 ar
13 12 13 ar
14 12 17 ar
15 13 14 ar
16 3 14 1
17 14 15 ar
18 15 16 ar
19 16 17 ar
@<TRIPOS>SUBSTRUCTURE
1	RES1	1	GROUP	1 ****	RES
