# created with PyMOL 2.5.2
@<TRIPOS>MOLECULE
BRD2_4A9J_TargetProtein
24 27 1                 
SMALL
USER_CHARGES
@<TRIPOS>ATOM
1	 CL1	19.307	18.138	-10.475	Cl	1	RES1	0.000	
2	  C1	14.851	10.593	-11.074	C.3	1	RES1	0.000	
3	  N1	19.688	9.511	-9.379	N.2	1	RES1	0.000	
4	  S1	16.998	9.527	-9.693	S.2	1	RES1	0.000	
5	  C2	16.313	10.673	-10.775	C.2	1	RES1	0.000	
6	  N2	21.073	8.290	-8.184	N.2	1	RES1	0.000	
7	  C3	17.282	11.538	-11.305	C.2	1	RES1	0.000	
8	  N3	21.781	8.832	-9.209	N.2	1	RES1	0.000	
9	  C4	16.949	12.587	-12.290	C.3	1	RES1	0.000	
10	  C5	18.583	11.290	-10.735	C.2	1	RES1	0.000	
11	  C6	18.579	10.164	-9.946	C.2	1	RES1	0.000	
12	  C7	19.835	8.680	-8.264	C.2	1	RES1	0.000	
13	  C8	18.786	8.356	-7.260	C.3	1	RES1	0.000	
14	  N8	20.972	11.687	-11.136	N.2	1	RES1	0.000	
15	  C9	20.956	9.538	-9.947	C.2	1	RES1	0.000	
16	 C10	21.220	10.224	-11.241	C.3	1	RES1	0.000	
17	 C11	22.653	10.055	-11.680	C.3	1	RES1	0.000	
18	 C40	19.782	12.161	-10.928	C.2	1	RES1	0.000	
19	 C41	19.645	13.645	-10.805	C.2	1	RES1	0.000	
20	 C42	18.493	14.218	-10.230	C.2	1	RES1	0.000	
21	 C43	18.390	15.597	-10.125	C.2	1	RES1	0.000	
22	 C44	19.409	16.413	-10.617	C.2	1	RES1	0.000	
23	 C45	20.570	15.866	-11.154	C.2	1	RES1	0.000	
24	 C46	20.685	14.467	-11.263	C.2	1	RES1	0.000	
@<TRIPOS>BOND
1 1 22 1
2 2 5 1
3 3 11 1
4 3 12 ar
5 3 15 ar
6 4 5 ar
7 4 11 ar
8 5 7 ar
9 6 8 ar
10 6 12 ar
11 7 9 1
12 7 10 ar
13 8 15 ar
14 10 11 ar
15 12 13 1
16 14 16 1
17 15 16 1
18 16 17 1
19 10 18 1
20 14 18 2
21 18 19 1
22 19 20 ar
23 19 24 ar
24 20 21 ar
25 21 22 ar
26 22 23 ar
27 23 24 ar
@<TRIPOS>SUBSTRUCTURE
1	RES1	1	GROUP	1 ****	RES
