# created with PyMOL 2.5.2
@<TRIPOS>MOLECULE
ER_1GWQ_TargetProtein
17 19 1                 
SMALL
USER_CHARGES
@<TRIPOS>ATOM
1	  S1	4.738	6.761	29.604	S.2	1	RES1	0.000	
2	  O8	10.263	8.344	33.103	O.3	1	RES1	0.000	
3	  O9	1.397	4.079	26.679	O.3	1	RES1	0.000	
4	 C31	6.168	4.642	29.485	C.2	1	RES1	0.000	
5	 C32	6.175	5.919	30.020	C.2	1	RES1	0.000	
6	 C33	7.213	6.543	30.854	C.2	1	RES1	0.000	
7	 C34	8.546	6.069	30.820	C.2	1	RES1	0.000	
8	 C35	9.552	6.701	31.565	C.2	1	RES1	0.000	
9	 C36	9.246	7.767	32.387	C.2	1	RES1	0.000	
10	 C37	7.943	8.278	32.449	C.2	1	RES1	0.000	
11	 C38	6.948	7.671	31.707	C.2	1	RES1	0.000	
12	 C39	4.119	5.439	28.704	C.2	1	RES1	0.000	
13	 C40	2.875	5.381	28.040	C.2	1	RES1	0.000	
14	 C41	2.586	4.197	27.369	C.2	1	RES1	0.000	
15	 C42	3.459	3.110	27.348	C.2	1	RES1	0.000	
16	 C43	4.650	3.174	28.030	C.2	1	RES1	0.000	
17	 C44	5.007	4.346	28.737	C.2	1	RES1	0.000	
@<TRIPOS>BOND
1 1 5 ar
2 1 12 ar
3 4 5 ar
4 4 17 ar
5 5 6 1
6 6 7 ar
7 6 11 ar
8 7 8 ar
9 8 9 ar
10 2 9 1
11 9 10 ar
12 10 11 ar
13 12 13 ar
14 12 17 ar
15 13 14 ar
16 3 14 1
17 14 15 ar
18 15 16 ar
19 16 17 ar
@<TRIPOS>SUBSTRUCTURE
1	RES1	1	GROUP	1 ****	RES
