# created with PyMOL 2.5.2
@<TRIPOS>MOLECULE
ER_1GWQ_TargetProtein
17 19 1                 
SMALL
USER_CHARGES
@<TRIPOS>ATOM
1	  S1	4.743	6.749	29.616	S.2	1	RES1	0.000	
2	  O9	10.237	8.385	33.164	O.3	1	RES1	0.000	
3	 O10	1.389	4.077	26.691	O.3	1	RES1	0.000	
4	 C33	6.172	4.646	29.472	C.2	1	RES1	0.000	
5	 C34	6.187	5.927	30.036	C.2	1	RES1	0.000	
6	 C35	7.223	6.539	30.850	C.2	1	RES1	0.000	
7	 C36	6.964	7.668	31.679	C.2	1	RES1	0.000	
8	 C37	7.962	8.273	32.406	C.2	1	RES1	0.000	
9	 C38	9.252	7.783	32.385	C.2	1	RES1	0.000	
10	 C39	9.569	6.662	31.575	C.2	1	RES1	0.000	
11	 C40	8.553	6.080	30.839	C.2	1	RES1	0.000	
12	 C41	4.102	5.421	28.719	C.2	1	RES1	0.000	
13	 C42	2.873	5.372	28.041	C.2	1	RES1	0.000	
14	 C43	2.574	4.196	27.367	C.2	1	RES1	0.000	
15	 C44	3.433	3.123	27.337	C.2	1	RES1	0.000	
16	 C45	4.661	3.181	28.022	C.2	1	RES1	0.000	
17	 C46	4.993	4.340	28.705	C.2	1	RES1	0.000	
@<TRIPOS>BOND
1 1 5 ar
2 1 12 ar
3 3 14 1
4 4 5 ar
5 4 17 ar
6 5 6 1
7 6 7 ar
8 6 11 ar
9 7 8 ar
10 8 9 ar
11 2 9 1
12 9 10 ar
13 10 11 ar
14 12 13 ar
15 12 17 ar
16 13 14 ar
17 14 15 ar
18 15 16 ar
19 16 17 ar
@<TRIPOS>SUBSTRUCTURE
1	RES1	1	GROUP	1 ****	RES
