# created with PyMOL 2.5.2
@<TRIPOS>MOLECULE
ER_1GWQ_TargetProtein
17 19 1                 
SMALL
USER_CHARGES
@<TRIPOS>ATOM
1	  S1	4.714	6.752	29.623	S.2	1	RES1	0.000	
2	 O10	10.255	8.303	33.161	O.3	1	RES1	0.000	
3	 O11	1.370	4.041	26.719	O.3	1	RES1	0.000	
4	 C35	6.188	4.683	29.431	C.2	1	RES1	0.000	
5	 C36	6.188	5.946	29.987	C.2	1	RES1	0.000	
6	 C37	7.229	6.592	30.812	C.2	1	RES1	0.000	
7	 C38	6.942	7.705	31.636	C.2	1	RES1	0.000	
8	 C39	7.965	8.292	32.413	C.2	1	RES1	0.000	
9	 C40	9.252	7.745	32.414	C.2	1	RES1	0.000	
10	 C41	9.524	6.645	31.629	C.2	1	RES1	0.000	
11	 C42	8.548	6.075	30.837	C.2	1	RES1	0.000	
12	 C43	4.107	5.409	28.712	C.2	1	RES1	0.000	
13	 C44	2.865	5.371	28.068	C.2	1	RES1	0.000	
14	 C45	2.580	4.183	27.382	C.2	1	RES1	0.000	
15	 C46	3.455	3.105	27.357	C.2	1	RES1	0.000	
16	 C47	4.669	3.219	28.023	C.2	1	RES1	0.000	
17	 C48	5.035	4.357	28.696	C.2	1	RES1	0.000	
@<TRIPOS>BOND
1 1 5 ar
2 1 12 ar
3 2 9 1
4 3 14 1
5 4 5 ar
6 4 17 ar
7 5 6 1
8 6 7 ar
9 6 11 ar
10 7 8 ar
11 8 9 ar
12 9 10 ar
13 10 11 ar
14 12 13 ar
15 12 17 ar
16 13 14 ar
17 14 15 ar
18 15 16 ar
19 16 17 ar
@<TRIPOS>SUBSTRUCTURE
1	RES1	1	GROUP	1 ****	RES
