# created with PyMOL 2.5.2
@<TRIPOS>MOLECULE
ER_1GWQ_TargetProtein
17 19 1                 
SMALL
USER_CHARGES
@<TRIPOS>ATOM
1	  S1	4.726	6.734	29.623	S.2	1	RES1	0.000	
2	 O11	10.281	8.355	33.123	O.3	1	RES1	0.000	
3	 O12	1.391	4.070	26.665	O.3	1	RES1	0.000	
4	 C37	6.165	4.658	29.473	C.2	1	RES1	0.000	
5	 C38	6.183	5.918	30.049	C.2	1	RES1	0.000	
6	 C39	7.223	6.554	30.878	C.2	1	RES1	0.000	
7	 C40	6.948	7.667	31.701	C.2	1	RES1	0.000	
8	 C41	7.945	8.276	32.440	C.2	1	RES1	0.000	
9	 C42	9.262	7.790	32.379	C.2	1	RES1	0.000	
10	 C43	9.540	6.673	31.558	C.2	1	RES1	0.000	
11	 C44	8.551	6.091	30.819	C.2	1	RES1	0.000	
12	 C45	4.100	5.425	28.711	C.2	1	RES1	0.000	
13	 C46	2.900	5.403	28.022	C.2	1	RES1	0.000	
14	 C47	2.586	4.199	27.356	C.2	1	RES1	0.000	
15	 C48	3.434	3.098	27.361	C.2	1	RES1	0.000	
16	 C49	4.657	3.178	28.023	C.2	1	RES1	0.000	
17	 C50	4.993	4.335	28.725	C.2	1	RES1	0.000	
@<TRIPOS>BOND
1 1 5 ar
2 1 12 ar
3 2 9 1
4 3 14 1
5 4 5 ar
6 4 17 ar
7 5 6 1
8 6 7 ar
9 6 11 ar
10 7 8 ar
11 8 9 ar
12 9 10 ar
13 10 11 ar
14 12 13 ar
15 12 17 ar
16 13 14 ar
17 14 15 ar
18 15 16 ar
19 16 17 ar
@<TRIPOS>SUBSTRUCTURE
1	RES1	1	GROUP	1 ****	RES
