# created with PyMOL 2.5.2
@<TRIPOS>MOLECULE
ER_1GWQ_TargetProtein
17 19 1                 
SMALL
USER_CHARGES
@<TRIPOS>ATOM
1	  S1	4.702	6.747	29.621	S.2	1	RES1	0.000	
2	 O12	10.255	8.295	33.173	O.3	1	RES1	0.000	
3	 O13	1.364	4.046	26.723	O.3	1	RES1	0.000	
4	 C39	6.197	4.663	29.439	C.2	1	RES1	0.000	
5	 C40	6.194	5.956	29.985	C.2	1	RES1	0.000	
6	 C41	7.236	6.581	30.800	C.2	1	RES1	0.000	
7	 C42	6.966	7.715	31.624	C.2	1	RES1	0.000	
8	 C43	7.957	8.307	32.420	C.2	1	RES1	0.000	
9	 C44	9.240	7.746	32.400	C.2	1	RES1	0.000	
10	 C45	9.540	6.650	31.643	C.2	1	RES1	0.000	
11	 C46	8.537	6.068	30.849	C.2	1	RES1	0.000	
12	 C47	4.098	5.428	28.711	C.2	1	RES1	0.000	
13	 C48	2.861	5.344	28.068	C.2	1	RES1	0.000	
14	 C49	2.582	4.178	27.389	C.2	1	RES1	0.000	
15	 C50	3.455	3.124	27.365	C.2	1	RES1	0.000	
16	 C51	4.691	3.212	28.006	C.2	1	RES1	0.000	
17	 C52	5.010	4.363	28.684	C.2	1	RES1	0.000	
@<TRIPOS>BOND
1 1 5 ar
2 1 12 ar
3 2 9 1
4 3 14 1
5 4 5 ar
6 4 17 ar
7 5 6 1
8 6 7 ar
9 6 11 ar
10 7 8 ar
11 8 9 ar
12 9 10 ar
13 10 11 ar
14 12 13 ar
15 12 17 ar
16 13 14 ar
17 14 15 ar
18 15 16 ar
19 16 17 ar
@<TRIPOS>SUBSTRUCTURE
1	RES1	1	GROUP	1 ****	RES
