# created with PyMOL 2.5.2
@<TRIPOS>MOLECULE
ER_1GWQ_TargetProtein
17 19 1                 
SMALL
USER_CHARGES
@<TRIPOS>ATOM
1	  S1	4.722	6.739	29.620	S.2	1	RES1	0.000	
2	 O13	10.244	8.298	33.179	O.3	1	RES1	0.000	
3	 O14	1.350	4.046	26.710	O.3	1	RES1	0.000	
4	 C41	6.204	4.679	29.439	C.2	1	RES1	0.000	
5	 C42	6.210	5.948	29.994	C.2	1	RES1	0.000	
6	 C43	7.228	6.598	30.799	C.2	1	RES1	0.000	
7	 C44	6.967	7.710	31.622	C.2	1	RES1	0.000	
8	 C45	7.956	8.291	32.413	C.2	1	RES1	0.000	
9	 C46	9.245	7.753	32.405	C.2	1	RES1	0.000	
10	 C47	9.555	6.647	31.645	C.2	1	RES1	0.000	
11	 C48	8.536	6.078	30.846	C.2	1	RES1	0.000	
12	 C49	4.075	5.419	28.720	C.2	1	RES1	0.000	
13	 C50	2.874	5.374	28.074	C.2	1	RES1	0.000	
14	 C51	2.573	4.163	27.387	C.2	1	RES1	0.000	
15	 C52	3.439	3.103	27.348	C.2	1	RES1	0.000	
16	 C53	4.688	3.204	28.009	C.2	1	RES1	0.000	
17	 C54	5.018	4.372	28.693	C.2	1	RES1	0.000	
@<TRIPOS>BOND
1 1 5 ar
2 1 12 ar
3 2 9 1
4 3 14 1
5 4 5 ar
6 4 17 ar
7 5 6 1
8 6 7 ar
9 6 11 ar
10 7 8 ar
11 8 9 ar
12 9 10 ar
13 10 11 ar
14 12 13 ar
15 12 17 ar
16 13 14 ar
17 14 15 ar
18 15 16 ar
19 16 17 ar
@<TRIPOS>SUBSTRUCTURE
1	RES1	1	GROUP	1 ****	RES
