# created with PyMOL 2.5.2
@<TRIPOS>MOLECULE
ER_1GWQ_TargetProtein
17 19 1                 
SMALL
USER_CHARGES
@<TRIPOS>ATOM
1	  S1	4.718	6.751	29.623	S.2	1	RES1	0.000	
2	  O8	10.237	8.297	33.181	O.3	1	RES1	0.000	
3	  O9	1.349	4.036	26.724	O.3	1	RES1	0.000	
4	 C29	6.210	4.712	29.434	C.2	1	RES1	0.000	
5	 C30	6.203	5.944	29.977	C.2	1	RES1	0.000	
6	 C31	7.246	6.617	30.800	C.2	1	RES1	0.000	
7	 C32	6.983	7.714	31.625	C.2	1	RES1	0.000	
8	 C33	7.966	8.321	32.412	C.2	1	RES1	0.000	
9	 C34	9.243	7.743	32.408	C.2	1	RES1	0.000	
10	 C35	9.534	6.634	31.648	C.2	1	RES1	0.000	
11	 C36	8.530	6.048	30.863	C.2	1	RES1	0.000	
12	 C37	4.097	5.441	28.725	C.2	1	RES1	0.000	
13	 C38	2.861	5.334	28.090	C.2	1	RES1	0.000	
14	 C39	2.557	4.185	27.370	C.2	1	RES1	0.000	
15	 C40	3.444	3.099	27.347	C.2	1	RES1	0.000	
16	 C41	4.687	3.192	27.978	C.2	1	RES1	0.000	
17	 C42	5.024	4.352	28.700	C.2	1	RES1	0.000	
@<TRIPOS>BOND
1 1 5 ar
2 1 12 ar
3 4 5 ar
4 4 17 ar
5 5 6 1
6 6 7 ar
7 6 11 ar
8 7 8 ar
9 8 9 ar
10 2 9 1
11 9 10 ar
12 10 11 ar
13 12 13 ar
14 12 17 ar
15 13 14 ar
16 3 14 1
17 14 15 ar
18 15 16 ar
19 16 17 ar
@<TRIPOS>SUBSTRUCTURE
1	RES1	1	GROUP	1 ****	RES
