# created with PyMOL 2.5.2
@<TRIPOS>MOLECULE
ER_1GWQ_TargetProtein
17 19 1                 
SMALL
USER_CHARGES
@<TRIPOS>ATOM
1	  S1	4.748	6.741	29.610	S.2	1	RES1	0.000	
2	  O8	10.252	8.359	33.124	O.3	1	RES1	0.000	
3	  O9	1.381	4.055	26.685	O.3	1	RES1	0.000	
4	 C31	6.167	4.672	29.449	C.2	1	RES1	0.000	
5	 C32	6.187	5.925	30.016	C.2	1	RES1	0.000	
6	 C33	7.237	6.550	30.860	C.2	1	RES1	0.000	
7	 C34	6.944	7.667	31.683	C.2	1	RES1	0.000	
8	 C35	7.947	8.286	32.444	C.2	1	RES1	0.000	
9	 C36	9.265	7.770	32.384	C.2	1	RES1	0.000	
10	 C37	9.569	6.681	31.611	C.2	1	RES1	0.000	
11	 C38	8.540	6.071	30.823	C.2	1	RES1	0.000	
12	 C39	4.111	5.441	28.709	C.2	1	RES1	0.000	
13	 C40	2.885	5.361	28.062	C.2	1	RES1	0.000	
14	 C41	2.576	4.206	27.345	C.2	1	RES1	0.000	
15	 C42	3.434	3.113	27.346	C.2	1	RES1	0.000	
16	 C43	4.644	3.181	28.027	C.2	1	RES1	0.000	
17	 C44	4.999	4.347	28.723	C.2	1	RES1	0.000	
@<TRIPOS>BOND
1 1 5 ar
2 1 12 ar
3 4 5 ar
4 4 17 ar
5 5 6 1
6 6 7 ar
7 6 11 ar
8 7 8 ar
9 8 9 ar
10 2 9 1
11 9 10 ar
12 10 11 ar
13 12 13 ar
14 12 17 ar
15 13 14 ar
16 3 14 1
17 14 15 ar
18 15 16 ar
19 16 17 ar
@<TRIPOS>SUBSTRUCTURE
1	RES1	1	GROUP	1 ****	RES
