# created with PyMOL 2.5.2
@<TRIPOS>MOLECULE
ER_1GWQ_TargetProtein
17 19 1                 
SMALL
USER_CHARGES
@<TRIPOS>ATOM
1	  S1	4.725	6.758	29.610	S.2	1	RES1	0.000	
2	  O8	10.259	8.303	33.172	O.3	1	RES1	0.000	
3	  O9	1.365	4.040	26.731	O.3	1	RES1	0.000	
4	 C32	6.185	4.694	29.434	C.2	1	RES1	0.000	
5	 C33	6.211	5.943	29.999	C.2	1	RES1	0.000	
6	 C34	7.230	6.605	30.810	C.2	1	RES1	0.000	
7	 C35	6.961	7.722	31.642	C.2	1	RES1	0.000	
8	 C36	7.962	8.276	32.423	C.2	1	RES1	0.000	
9	 C37	9.234	7.744	32.416	C.2	1	RES1	0.000	
10	 C38	9.527	6.645	31.631	C.2	1	RES1	0.000	
11	 C39	8.548	6.069	30.813	C.2	1	RES1	0.000	
12	 C40	4.096	5.423	28.708	C.2	1	RES1	0.000	
13	 C41	2.871	5.358	28.065	C.2	1	RES1	0.000	
14	 C42	2.572	4.167	27.370	C.2	1	RES1	0.000	
15	 C43	3.458	3.106	27.356	C.2	1	RES1	0.000	
16	 C44	4.674	3.193	28.012	C.2	1	RES1	0.000	
17	 C45	5.009	4.376	28.714	C.2	1	RES1	0.000	
@<TRIPOS>BOND
1 1 5 ar
2 1 12 ar
3 4 5 ar
4 4 17 ar
5 5 6 1
6 6 7 ar
7 6 11 ar
8 7 8 ar
9 8 9 ar
10 2 9 1
11 9 10 ar
12 10 11 ar
13 12 13 ar
14 12 17 ar
15 13 14 ar
16 3 14 1
17 14 15 ar
18 15 16 ar
19 16 17 ar
@<TRIPOS>SUBSTRUCTURE
1	RES1	1	GROUP	1 ****	RES
