# created with PyMOL 2.5.2
@<TRIPOS>MOLECULE
ER_1GWQ_TargetProtein
17 19 1                 
SMALL
USER_CHARGES
@<TRIPOS>ATOM
1	  S1	4.731	6.738	29.613	S.2	1	RES1	0.000	
2	  O8	10.265	8.363	33.111	O.3	1	RES1	0.000	
3	  O9	1.381	4.079	26.674	O.3	1	RES1	0.000	
4	 C33	6.180	4.646	29.488	C.2	1	RES1	0.000	
5	 C34	6.185	5.924	30.027	C.2	1	RES1	0.000	
6	 C35	7.223	6.557	30.879	C.2	1	RES1	0.000	
7	 C36	6.967	7.652	31.653	C.2	1	RES1	0.000	
8	 C37	7.926	8.278	32.434	C.2	1	RES1	0.000	
9	 C38	9.252	7.763	32.373	C.2	1	RES1	0.000	
10	 C39	9.547	6.684	31.603	C.2	1	RES1	0.000	
11	 C40	8.561	6.082	30.833	C.2	1	RES1	0.000	
12	 C41	4.103	5.437	28.723	C.2	1	RES1	0.000	
13	 C42	2.878	5.377	28.048	C.2	1	RES1	0.000	
14	 C43	2.577	4.190	27.360	C.2	1	RES1	0.000	
15	 C44	3.439	3.127	27.344	C.2	1	RES1	0.000	
16	 C45	4.670	3.173	28.014	C.2	1	RES1	0.000	
17	 C46	5.001	4.349	28.721	C.2	1	RES1	0.000	
@<TRIPOS>BOND
1 1 5 ar
2 1 12 ar
3 4 5 ar
4 4 17 ar
5 5 6 1
6 6 7 ar
7 6 11 ar
8 7 8 ar
9 8 9 ar
10 2 9 1
11 9 10 ar
12 10 11 ar
13 12 13 ar
14 12 17 ar
15 13 14 ar
16 3 14 1
17 14 15 ar
18 15 16 ar
19 16 17 ar
@<TRIPOS>SUBSTRUCTURE
1	RES1	1	GROUP	1 ****	RES
