# created with PyMOL 2.5.2
@<TRIPOS>MOLECULE
BRD2_4A9J_TargetProtein
24 27 1                 
SMALL
USER_CHARGES
@<TRIPOS>ATOM
1	 CL1	19.292	18.123	-10.472	Cl	1	RES1	0.000	
2	  C1	14.859	10.599	-11.061	C.3	1	RES1	0.000	
3	  N1	19.678	9.510	-9.386	N.2	1	RES1	0.000	
4	  S1	17.005	9.505	-9.705	S.2	1	RES1	0.000	
5	  C2	16.322	10.661	-10.781	C.2	1	RES1	0.000	
6	  N2	21.077	8.283	-8.179	N.2	1	RES1	0.000	
7	  C3	17.286	11.538	-11.302	C.2	1	RES1	0.000	
8	  N3	21.768	8.837	-9.238	N.2	1	RES1	0.000	
9	  C4	16.929	12.598	-12.303	C.3	1	RES1	0.000	
10	  C5	18.601	11.322	-10.733	C.2	1	RES1	0.000	
11	  C6	18.571	10.165	-9.927	C.2	1	RES1	0.000	
12	  C7	19.826	8.707	-8.270	C.2	1	RES1	0.000	
13	  C8	18.802	8.364	-7.250	C.3	1	RES1	0.000	
14	  N8	20.971	11.664	-11.124	N.2	1	RES1	0.000	
15	  C9	20.957	9.556	-9.946	C.2	1	RES1	0.000	
16	 C10	21.213	10.235	-11.236	C.3	1	RES1	0.000	
17	 C11	22.663	10.021	-11.707	C.3	1	RES1	0.000	
18	 C40	19.781	12.164	-10.922	C.2	1	RES1	0.000	
19	 C41	19.638	13.638	-10.816	C.2	1	RES1	0.000	
20	 C42	18.475	14.216	-10.247	C.2	1	RES1	0.000	
21	 C43	18.373	15.609	-10.145	C.2	1	RES1	0.000	
22	 C44	19.423	16.412	-10.587	C.2	1	RES1	0.000	
23	 C45	20.592	15.846	-11.157	C.2	1	RES1	0.000	
24	 C46	20.707	14.446	-11.247	C.2	1	RES1	0.000	
@<TRIPOS>BOND
1 1 22 1
2 2 5 1
3 3 11 1
4 3 12 ar
5 3 15 ar
6 4 5 ar
7 4 11 ar
8 5 7 ar
9 6 8 ar
10 6 12 ar
11 7 9 1
12 7 10 ar
13 8 15 ar
14 10 11 ar
15 12 13 1
16 14 16 1
17 15 16 1
18 16 17 1
19 10 18 1
20 14 18 2
21 18 19 1
22 19 20 ar
23 19 24 ar
24 20 21 ar
25 21 22 ar
26 22 23 ar
27 23 24 ar
@<TRIPOS>SUBSTRUCTURE
1	RES1	1	GROUP	1 ****	RES
