# created with PyMOL 2.5.2
@<TRIPOS>MOLECULE
BRD4_6C7R_TargetProtein
35 40 1                 
SMALL
USER_CHARGES
@<TRIPOS>ATOM
1	  C1	-3.985	8.440	25.751	C.3	1	RES1	0.000	
2	  N1	-1.892	8.391	24.301	N.2	1	RES1	0.000	
3	  O1	4.950	6.932	26.675	O.2	1	RES1	0.000	
4	  C2	-2.580	7.874	25.500	C.3	1	RES1	0.000	
5	  N2	-2.618	8.979	23.339	N.2	1	RES1	0.000	
6	  C3	-1.684	9.294	22.432	C.2	1	RES1	0.000	
7	  N3	0.307	7.736	24.941	N.pl3	1	RES1	0.000	
8	  C4	-1.981	10.000	21.087	C.3	1	RES1	0.000	
9	  N4	2.552	6.865	25.345	N.2	1	RES1	0.000	
10	  C5	-3.273	9.691	20.388	C.3	1	RES1	0.000	
11	  C6	-1.982	9.180	19.823	C.3	1	RES1	0.000	
12	  C7	-0.401	8.909	22.818	C.2	1	RES1	0.000	
13	  O7	-3.139	5.412	21.064	O.3	1	RES1	0.000	
14	  C8	-0.540	8.309	24.046	C.2	1	RES1	0.000	
15	  O8	-2.433	2.321	17.775	O.2	1	RES1	0.000	
16	  C9	1.352	6.791	24.658	C.2	1	RES1	0.000	
17	 C10	3.506	5.963	25.058	C.2	1	RES1	0.000	
18	 N10	3.462	4.965	24.171	N.2	1	RES1	0.000	
19	 C11	4.758	6.101	25.827	C.2	1	RES1	0.000	
20	 N11	-3.501	1.992	18.593	N.2	1	RES1	0.000	
21	 N12	2.014	4.036	22.565	N.2	1	RES1	0.000	
22	 C31	2.299	4.930	23.517	C.2	1	RES1	0.000	
23	 C32	1.217	5.790	23.685	C.2	1	RES1	0.000	
24	 C33	0.212	5.359	22.766	C.2	1	RES1	0.000	
25	 C34	-1.101	5.737	22.432	C.2	1	RES1	0.000	
26	 C35	-1.836	5.086	21.450	C.2	1	RES1	0.000	
27	 C36	-3.817	6.367	21.878	C.3	1	RES1	0.000	
28	 C37	-1.261	3.974	20.797	C.2	1	RES1	0.000	
29	 C38	-1.983	3.246	19.752	C.2	1	RES1	0.000	
30	 C39	-1.533	3.068	18.449	C.2	1	RES1	0.000	
31	 C40	-0.309	3.468	17.735	C.3	1	RES1	0.000	
32	 C41	-3.244	2.534	19.790	C.2	1	RES1	0.000	
33	 C42	-4.161	2.402	20.899	C.3	1	RES1	0.000	
34	 C43	0.034	3.572	21.102	C.2	1	RES1	0.000	
35	 C44	0.757	4.250	22.088	C.2	1	RES1	0.000	
@<TRIPOS>BOND
1 1 4 1
2 2 4 1
3 2 5 ar
4 2 14 ar
5 3 19 2
6 5 6 ar
7 6 8 1
8 6 12 ar
9 7 14 1
10 7 16 1
11 8 10 1
12 8 11 1
13 9 16 ar
14 10 11 1
15 12 14 ar
16 9 17 ar
17 17 18 ar
18 17 19 1
19 18 22 ar
20 15 20 ar
21 20 32 ar
22 21 22 ar
23 21 35 ar
24 22 23 ar
25 16 23 ar
26 23 24 ar
27 24 25 ar
28 24 35 ar
29 25 26 ar
30 13 26 1
31 26 28 ar
32 13 27 1
33 28 29 1
34 28 34 ar
35 29 30 ar
36 29 32 ar
37 15 30 ar
38 30 31 1
39 32 33 1
40 34 35 ar
@<TRIPOS>SUBSTRUCTURE
1	RES1	1	GROUP	1 ****	RES
