# created with PyMOL 2.5.2
@<TRIPOS>MOLECULE
ER_1GWQ_TargetProtein
17 19 1                 
SMALL
USER_CHARGES
@<TRIPOS>ATOM
1	  S1	4.760	6.745	29.619	S.2	1	RES1	0.000	
2	  O8	10.258	8.376	33.101	O.3	1	RES1	0.000	
3	  O9	1.382	4.116	26.678	O.3	1	RES1	0.000	
4	 C34	6.151	4.627	29.474	C.2	1	RES1	0.000	
5	 C35	6.201	5.882	30.042	C.2	1	RES1	0.000	
6	 C36	7.231	6.527	30.914	C.2	1	RES1	0.000	
7	 C37	6.937	7.628	31.671	C.2	1	RES1	0.000	
8	 C38	7.934	8.284	32.438	C.2	1	RES1	0.000	
9	 C39	9.260	7.794	32.386	C.2	1	RES1	0.000	
10	 C40	9.561	6.726	31.585	C.2	1	RES1	0.000	
11	 C41	8.557	6.097	30.817	C.2	1	RES1	0.000	
12	 C42	4.112	5.424	28.711	C.2	1	RES1	0.000	
13	 C43	2.908	5.384	28.028	C.2	1	RES1	0.000	
14	 C44	2.571	4.210	27.354	C.2	1	RES1	0.000	
15	 C45	3.422	3.100	27.345	C.2	1	RES1	0.000	
16	 C46	4.644	3.168	28.030	C.2	1	RES1	0.000	
17	 C47	4.998	4.330	28.714	C.2	1	RES1	0.000	
@<TRIPOS>BOND
1 1 5 ar
2 1 12 ar
3 4 5 ar
4 4 17 ar
5 5 6 1
6 6 7 ar
7 6 11 ar
8 7 8 ar
9 8 9 ar
10 2 9 1
11 9 10 ar
12 10 11 ar
13 12 13 ar
14 12 17 ar
15 13 14 ar
16 3 14 1
17 14 15 ar
18 15 16 ar
19 16 17 ar
@<TRIPOS>SUBSTRUCTURE
1	RES1	1	GROUP	1 ****	RES
