# created with PyMOL 2.5.2
@<TRIPOS>MOLECULE
ER_1GWQ_TargetProtein
17 19 1                 
SMALL
USER_CHARGES
@<TRIPOS>ATOM
1	  S1	4.725	6.755	29.639	S.2	1	RES1	0.000	
2	  O8	10.217	8.327	33.216	O.3	1	RES1	0.000	
3	  O9	1.364	4.035	26.712	O.3	1	RES1	0.000	
4	 C35	6.208	4.684	29.436	C.2	1	RES1	0.000	
5	 C36	6.204	5.955	29.997	C.2	1	RES1	0.000	
6	 C37	7.243	6.603	30.793	C.2	1	RES1	0.000	
7	 C38	6.972	7.711	31.631	C.2	1	RES1	0.000	
8	 C39	7.988	8.299	32.403	C.2	1	RES1	0.000	
9	 C40	9.242	7.742	32.411	C.2	1	RES1	0.000	
10	 C41	9.571	6.634	31.642	C.2	1	RES1	0.000	
11	 C42	8.549	6.078	30.844	C.2	1	RES1	0.000	
12	 C43	4.103	5.418	28.704	C.2	1	RES1	0.000	
13	 C44	2.871	5.345	28.065	C.2	1	RES1	0.000	
14	 C45	2.552	4.165	27.401	C.2	1	RES1	0.000	
15	 C46	3.436	3.104	27.357	C.2	1	RES1	0.000	
16	 C47	4.653	3.212	27.985	C.2	1	RES1	0.000	
17	 C48	4.994	4.358	28.689	C.2	1	RES1	0.000	
@<TRIPOS>BOND
1 1 5 ar
2 1 12 ar
3 4 5 ar
4 4 17 ar
5 5 6 1
6 6 7 ar
7 6 11 ar
8 7 8 ar
9 8 9 ar
10 2 9 1
11 9 10 ar
12 10 11 ar
13 12 13 ar
14 12 17 ar
15 13 14 ar
16 3 14 1
17 14 15 ar
18 15 16 ar
19 16 17 ar
@<TRIPOS>SUBSTRUCTURE
1	RES1	1	GROUP	1 ****	RES
