# created with PyMOL 2.5.2
@<TRIPOS>MOLECULE
ER_1GWQ_TargetProtein
17 19 1                 
SMALL
USER_CHARGES
@<TRIPOS>ATOM
1	  S1	4.721	6.751	29.623	S.2	1	RES1	0.000	
2	  O9	10.218	8.387	33.150	O.3	1	RES1	0.000	
3	 O10	1.363	4.076	26.673	O.3	1	RES1	0.000	
4	 C31	6.170	4.656	29.464	C.2	1	RES1	0.000	
5	 C32	6.203	5.906	30.015	C.2	1	RES1	0.000	
6	 C33	7.231	6.529	30.856	C.2	1	RES1	0.000	
7	 C34	6.943	7.667	31.666	C.2	1	RES1	0.000	
8	 C35	7.969	8.290	32.406	C.2	1	RES1	0.000	
9	 C36	9.263	7.769	32.367	C.2	1	RES1	0.000	
10	 C37	9.561	6.683	31.604	C.2	1	RES1	0.000	
11	 C38	8.557	6.050	30.844	C.2	1	RES1	0.000	
12	 C39	4.105	5.418	28.731	C.2	1	RES1	0.000	
13	 C40	2.891	5.396	28.069	C.2	1	RES1	0.000	
14	 C41	2.570	4.195	27.356	C.2	1	RES1	0.000	
15	 C42	3.436	3.122	27.334	C.2	1	RES1	0.000	
16	 C43	4.665	3.179	28.020	C.2	1	RES1	0.000	
17	 C44	5.020	4.348	28.718	C.2	1	RES1	0.000	
@<TRIPOS>BOND
1 1 5 ar
2 1 12 ar
3 3 14 1
4 4 5 ar
5 4 17 ar
6 5 6 1
7 6 7 ar
8 6 11 ar
9 7 8 ar
10 8 9 ar
11 2 9 1
12 9 10 ar
13 10 11 ar
14 12 13 ar
15 12 17 ar
16 13 14 ar
17 14 15 ar
18 15 16 ar
19 16 17 ar
@<TRIPOS>SUBSTRUCTURE
1	RES1	1	GROUP	1 ****	RES
