# created with PyMOL 2.5.2
@<TRIPOS>MOLECULE
ER_1GWQ_TargetProtein
17 19 1                 
SMALL
USER_CHARGES
@<TRIPOS>ATOM
1	  S1	4.710	6.768	29.613	S.2	1	RES1	0.000	
2	 O10	10.266	8.297	33.188	O.3	1	RES1	0.000	
3	 O11	1.353	4.041	26.722	O.3	1	RES1	0.000	
4	 C33	6.183	4.681	29.441	C.2	1	RES1	0.000	
5	 C34	6.201	5.954	30.002	C.2	1	RES1	0.000	
6	 C35	7.216	6.584	30.811	C.2	1	RES1	0.000	
7	 C36	6.951	7.707	31.638	C.2	1	RES1	0.000	
8	 C37	7.967	8.302	32.422	C.2	1	RES1	0.000	
9	 C38	9.252	7.745	32.403	C.2	1	RES1	0.000	
10	 C39	9.548	6.652	31.623	C.2	1	RES1	0.000	
11	 C40	8.547	6.081	30.836	C.2	1	RES1	0.000	
12	 C41	4.095	5.431	28.716	C.2	1	RES1	0.000	
13	 C42	2.877	5.339	28.041	C.2	1	RES1	0.000	
14	 C43	2.561	4.183	27.393	C.2	1	RES1	0.000	
15	 C44	3.464	3.099	27.348	C.2	1	RES1	0.000	
16	 C45	4.670	3.201	28.005	C.2	1	RES1	0.000	
17	 C46	5.025	4.355	28.700	C.2	1	RES1	0.000	
@<TRIPOS>BOND
1 1 5 ar
2 1 12 ar
3 2 9 1
4 3 14 1
5 4 5 ar
6 4 17 ar
7 5 6 1
8 6 7 ar
9 6 11 ar
10 7 8 ar
11 8 9 ar
12 9 10 ar
13 10 11 ar
14 12 13 ar
15 12 17 ar
16 13 14 ar
17 14 15 ar
18 15 16 ar
19 16 17 ar
@<TRIPOS>SUBSTRUCTURE
1	RES1	1	GROUP	1 ****	RES
