# created with PyMOL 2.5.2
@<TRIPOS>MOLECULE
ER_1GWQ_TargetProtein
17 19 1                 
SMALL
USER_CHARGES
@<TRIPOS>ATOM
1	  S1	4.722	6.758	29.603	S.2	1	RES1	0.000	
2	 O11	10.264	8.361	33.115	O.3	1	RES1	0.000	
3	 O12	1.402	4.073	26.665	O.3	1	RES1	0.000	
4	 C35	6.170	4.633	29.487	C.2	1	RES1	0.000	
5	 C36	6.188	5.918	30.034	C.2	1	RES1	0.000	
6	 C37	7.222	6.555	30.869	C.2	1	RES1	0.000	
7	 C38	8.542	6.088	30.829	C.2	1	RES1	0.000	
8	 C39	9.554	6.704	31.549	C.2	1	RES1	0.000	
9	 C40	9.245	7.784	32.377	C.2	1	RES1	0.000	
10	 C41	7.967	8.258	32.472	C.2	1	RES1	0.000	
11	 C42	6.961	7.671	31.709	C.2	1	RES1	0.000	
12	 C43	4.107	5.422	28.703	C.2	1	RES1	0.000	
13	 C44	2.912	5.381	28.039	C.2	1	RES1	0.000	
14	 C45	2.580	4.192	27.357	C.2	1	RES1	0.000	
15	 C46	3.427	3.109	27.349	C.2	1	RES1	0.000	
16	 C47	4.626	3.182	28.030	C.2	1	RES1	0.000	
17	 C48	4.995	4.333	28.719	C.2	1	RES1	0.000	
@<TRIPOS>BOND
1 1 5 ar
2 1 12 ar
3 2 9 1
4 3 14 1
5 4 5 ar
6 4 17 ar
7 5 6 1
8 6 7 ar
9 6 11 ar
10 7 8 ar
11 8 9 ar
12 9 10 ar
13 10 11 ar
14 12 13 ar
15 12 17 ar
16 13 14 ar
17 14 15 ar
18 15 16 ar
19 16 17 ar
@<TRIPOS>SUBSTRUCTURE
1	RES1	1	GROUP	1 ****	RES
