# created with PyMOL 2.5.2
@<TRIPOS>MOLECULE
ER_1GWQ_TargetProtein
17 19 1                 
SMALL
USER_CHARGES
@<TRIPOS>ATOM
1	  S1	4.722	6.729	29.623	S.2	1	RES1	0.000	
2	 O12	10.267	8.336	33.133	O.3	1	RES1	0.000	
3	 O13	1.385	4.057	26.687	O.3	1	RES1	0.000	
4	 C37	6.165	4.662	29.458	C.2	1	RES1	0.000	
5	 C38	6.193	5.937	30.025	C.2	1	RES1	0.000	
6	 C39	7.244	6.562	30.861	C.2	1	RES1	0.000	
7	 C40	6.953	7.685	31.675	C.2	1	RES1	0.000	
8	 C41	7.942	8.282	32.424	C.2	1	RES1	0.000	
9	 C42	9.259	7.788	32.390	C.2	1	RES1	0.000	
10	 C43	9.538	6.665	31.590	C.2	1	RES1	0.000	
11	 C44	8.540	6.066	30.830	C.2	1	RES1	0.000	
12	 C45	4.102	5.444	28.718	C.2	1	RES1	0.000	
13	 C46	2.887	5.369	28.048	C.2	1	RES1	0.000	
14	 C47	2.585	4.203	27.373	C.2	1	RES1	0.000	
15	 C48	3.448	3.111	27.335	C.2	1	RES1	0.000	
16	 C49	4.652	3.172	28.029	C.2	1	RES1	0.000	
17	 C50	5.004	4.352	28.703	C.2	1	RES1	0.000	
@<TRIPOS>BOND
1 1 5 ar
2 1 12 ar
3 2 9 1
4 3 14 1
5 4 5 ar
6 4 17 ar
7 5 6 1
8 6 7 ar
9 6 11 ar
10 7 8 ar
11 8 9 ar
12 9 10 ar
13 10 11 ar
14 12 13 ar
15 12 17 ar
16 13 14 ar
17 14 15 ar
18 15 16 ar
19 16 17 ar
@<TRIPOS>SUBSTRUCTURE
1	RES1	1	GROUP	1 ****	RES
