# created with PyMOL 2.5.2
@<TRIPOS>MOLECULE
ER_1GWQ_TargetProtein
17 19 1                 
SMALL
USER_CHARGES
@<TRIPOS>ATOM
1	  S1	4.741	6.770	29.566	S.2	1	RES1	0.000	
2	 O13	10.288	8.308	33.171	O.3	1	RES1	0.000	
3	 O14	1.381	4.052	26.671	O.3	1	RES1	0.000	
4	 C39	6.154	4.672	29.495	C.2	1	RES1	0.000	
5	 C40	6.198	5.948	30.014	C.2	1	RES1	0.000	
6	 C41	7.231	6.617	30.817	C.2	1	RES1	0.000	
7	 C42	8.558	6.130	30.771	C.2	1	RES1	0.000	
8	 C43	9.560	6.702	31.548	C.2	1	RES1	0.000	
9	 C44	9.241	7.750	32.402	C.2	1	RES1	0.000	
10	 C45	7.943	8.225	32.496	C.2	1	RES1	0.000	
11	 C46	6.936	7.656	31.698	C.2	1	RES1	0.000	
12	 C47	4.125	5.429	28.693	C.2	1	RES1	0.000	
13	 C48	2.891	5.369	28.024	C.2	1	RES1	0.000	
14	 C49	2.575	4.172	27.375	C.2	1	RES1	0.000	
15	 C50	3.435	3.077	27.387	C.2	1	RES1	0.000	
16	 C51	4.638	3.173	28.049	C.2	1	RES1	0.000	
17	 C52	4.992	4.371	28.725	C.2	1	RES1	0.000	
@<TRIPOS>BOND
1 1 5 ar
2 1 12 ar
3 2 9 1
4 3 14 1
5 4 5 ar
6 4 17 ar
7 5 6 1
8 6 7 ar
9 6 11 ar
10 7 8 ar
11 8 9 ar
12 9 10 ar
13 10 11 ar
14 12 13 ar
15 12 17 ar
16 13 14 ar
17 14 15 ar
18 15 16 ar
19 16 17 ar
@<TRIPOS>SUBSTRUCTURE
1	RES1	1	GROUP	1 ****	RES
