# created with PyMOL 2.5.2
@<TRIPOS>MOLECULE
ER_1GWQ_TargetProtein
17 19 1                 
SMALL
USER_CHARGES
@<TRIPOS>ATOM
1	  S1	4.706	6.760	29.606	S.2	1	RES1	0.000	
2	 O14	10.258	8.293	33.174	O.3	1	RES1	0.000	
3	 O15	1.368	4.044	26.713	O.3	1	RES1	0.000	
4	 C41	6.173	4.683	29.438	C.2	1	RES1	0.000	
5	 C42	6.193	5.950	30.005	C.2	1	RES1	0.000	
6	 C43	7.250	6.603	30.824	C.2	1	RES1	0.000	
7	 C44	6.975	7.707	31.644	C.2	1	RES1	0.000	
8	 C45	7.962	8.271	32.443	C.2	1	RES1	0.000	
9	 C46	9.244	7.754	32.394	C.2	1	RES1	0.000	
10	 C47	9.534	6.672	31.627	C.2	1	RES1	0.000	
11	 C48	8.563	6.088	30.821	C.2	1	RES1	0.000	
12	 C49	4.082	5.440	28.702	C.2	1	RES1	0.000	
13	 C50	2.882	5.348	28.068	C.2	1	RES1	0.000	
14	 C51	2.569	4.180	27.360	C.2	1	RES1	0.000	
15	 C52	3.439	3.103	27.350	C.2	1	RES1	0.000	
16	 C53	4.674	3.174	28.016	C.2	1	RES1	0.000	
17	 C54	5.014	4.351	28.723	C.2	1	RES1	0.000	
@<TRIPOS>BOND
1 1 5 ar
2 1 12 ar
3 2 9 1
4 3 14 1
5 4 5 ar
6 4 17 ar
7 5 6 1
8 6 7 ar
9 6 11 ar
10 7 8 ar
11 8 9 ar
12 9 10 ar
13 10 11 ar
14 12 13 ar
15 12 17 ar
16 13 14 ar
17 14 15 ar
18 15 16 ar
19 16 17 ar
@<TRIPOS>SUBSTRUCTURE
1	RES1	1	GROUP	1 ****	RES
