# created with PyMOL 2.5.2
@<TRIPOS>MOLECULE
ER_1GWQ_TargetProtein
17 19 1                 
SMALL
USER_CHARGES
@<TRIPOS>ATOM
1	  S1	4.715	6.759	29.615	S.2	1	RES1	0.000	
2	  O8	10.244	8.297	33.163	O.3	1	RES1	0.000	
3	  O9	1.372	4.043	26.707	O.3	1	RES1	0.000	
4	 C31	6.197	4.676	29.444	C.2	1	RES1	0.000	
5	 C32	6.200	5.951	30.023	C.2	1	RES1	0.000	
6	 C33	7.254	6.606	30.804	C.2	1	RES1	0.000	
7	 C34	6.953	7.708	31.644	C.2	1	RES1	0.000	
8	 C35	7.950	8.260	32.430	C.2	1	RES1	0.000	
9	 C36	9.228	7.755	32.399	C.2	1	RES1	0.000	
10	 C37	9.549	6.654	31.610	C.2	1	RES1	0.000	
11	 C38	8.527	6.088	30.828	C.2	1	RES1	0.000	
12	 C39	4.126	5.427	28.724	C.2	1	RES1	0.000	
13	 C40	2.891	5.361	28.055	C.2	1	RES1	0.000	
14	 C41	2.567	4.180	27.385	C.2	1	RES1	0.000	
15	 C42	3.441	3.104	27.358	C.2	1	RES1	0.000	
16	 C43	4.652	3.190	28.022	C.2	1	RES1	0.000	
17	 C44	5.018	4.366	28.691	C.2	1	RES1	0.000	
@<TRIPOS>BOND
1 1 5 ar
2 1 12 ar
3 4 5 ar
4 4 17 ar
5 5 6 1
6 6 7 ar
7 6 11 ar
8 7 8 ar
9 8 9 ar
10 2 9 1
11 9 10 ar
12 10 11 ar
13 12 13 ar
14 12 17 ar
15 13 14 ar
16 3 14 1
17 14 15 ar
18 15 16 ar
19 16 17 ar
@<TRIPOS>SUBSTRUCTURE
1	RES1	1	GROUP	1 ****	RES
