# created with PyMOL 2.5.2
@<TRIPOS>MOLECULE
ER_1GWQ_TargetProtein
17 19 1                 
SMALL
USER_CHARGES
@<TRIPOS>ATOM
1	  S1	4.726	6.759	29.604	S.2	1	RES1	0.000	
2	  O8	10.287	8.334	33.105	O.3	1	RES1	0.000	
3	  O9	1.406	4.073	26.663	O.3	1	RES1	0.000	
4	 C33	6.162	4.646	29.496	C.2	1	RES1	0.000	
5	 C34	6.177	5.917	30.049	C.2	1	RES1	0.000	
6	 C35	7.217	6.547	30.878	C.2	1	RES1	0.000	
7	 C36	6.939	7.680	31.685	C.2	1	RES1	0.000	
8	 C37	7.941	8.272	32.450	C.2	1	RES1	0.000	
9	 C38	9.258	7.782	32.379	C.2	1	RES1	0.000	
10	 C39	9.565	6.688	31.565	C.2	1	RES1	0.000	
11	 C40	8.548	6.095	30.829	C.2	1	RES1	0.000	
12	 C41	4.107	5.412	28.725	C.2	1	RES1	0.000	
13	 C42	2.883	5.383	28.035	C.2	1	RES1	0.000	
14	 C43	2.566	4.192	27.352	C.2	1	RES1	0.000	
15	 C44	3.456	3.114	27.361	C.2	1	RES1	0.000	
16	 C45	4.645	3.184	28.008	C.2	1	RES1	0.000	
17	 C46	5.005	4.339	28.721	C.2	1	RES1	0.000	
@<TRIPOS>BOND
1 1 5 ar
2 1 12 ar
3 4 5 ar
4 4 17 ar
5 5 6 1
6 6 7 ar
7 6 11 ar
8 7 8 ar
9 8 9 ar
10 2 9 1
11 9 10 ar
12 10 11 ar
13 12 13 ar
14 12 17 ar
15 13 14 ar
16 3 14 1
17 14 15 ar
18 15 16 ar
19 16 17 ar
@<TRIPOS>SUBSTRUCTURE
1	RES1	1	GROUP	1 ****	RES
