# created with PyMOL 2.5.2
@<TRIPOS>MOLECULE
BRD4_6YQN_TargetProtein
24 27 1                 
SMALL
USER_CHARGES
@<TRIPOS>ATOM
1	 CL1	25.738	17.910	-6.987	Cl	1	RES1	0.000	
2	  C1	26.028	15.087	1.282	C.3	1	RES1	0.000	
3	  N1	30.789	16.819	0.009	N.2	1	RES1	0.000	
4	  S1	28.502	16.317	1.363	S.2	1	RES1	0.000	
5	  C2	27.245	15.516	0.542	C.2	1	RES1	0.000	
6	  N2	32.699	17.756	0.540	N.2	1	RES1	0.000	
7	  C3	27.525	15.302	-0.814	C.2	1	RES1	0.000	
8	  N3	32.916	16.950	-0.553	N.2	1	RES1	0.000	
9	  C4	26.625	14.552	-1.728	C.3	1	RES1	0.000	
10	  C5	28.783	15.882	-1.181	C.2	1	RES1	0.000	
11	  C6	29.454	16.378	-0.069	C.2	1	RES1	0.000	
12	  C7	31.426	17.699	0.883	C.2	1	RES1	0.000	
13	  C8	30.814	18.512	1.964	C.3	1	RES1	0.000	
14	  N8	30.589	15.772	-2.866	N.2	1	RES1	0.000	
15	  C9	31.780	16.390	-0.840	C.2	1	RES1	0.000	
16	 C10	31.563	15.311	-1.870	C.3	1	RES1	0.000	
17	 C11	32.835	14.953	-2.595	C.3	1	RES1	0.000	
18	 C40	29.340	16.025	-2.557	C.2	1	RES1	0.000	
19	 C41	28.416	16.472	-3.655	C.2	1	RES1	0.000	
20	 C42	27.309	17.298	-3.368	C.2	1	RES1	0.000	
21	 C43	26.468	17.728	-4.406	C.2	1	RES1	0.000	
22	 C44	26.778	17.360	-5.704	C.2	1	RES1	0.000	
23	 C45	27.868	16.572	-6.024	C.2	1	RES1	0.000	
24	 C46	28.715	16.121	-4.975	C.2	1	RES1	0.000	
@<TRIPOS>BOND
1 1 22 1
2 2 5 1
3 3 11 1
4 3 12 ar
5 3 15 ar
6 4 5 ar
7 4 11 ar
8 5 7 ar
9 6 8 ar
10 6 12 ar
11 7 9 1
12 7 10 ar
13 8 15 ar
14 10 11 ar
15 12 13 1
16 14 16 1
17 15 16 1
18 16 17 1
19 10 18 1
20 14 18 2
21 18 19 1
22 19 20 ar
23 19 24 ar
24 20 21 ar
25 21 22 ar
26 22 23 ar
27 23 24 ar
@<TRIPOS>SUBSTRUCTURE
1	RES1	1	GROUP	1 ****	RES
