# created with PyMOL 2.5.2
@<TRIPOS>MOLECULE
ER_1GWQ_TargetProtein
17 19 1                 
SMALL
USER_CHARGES
@<TRIPOS>ATOM
1	  S1	4.738	6.752	29.596	S.2	1	RES1	0.000	
2	  O8	10.245	8.369	33.115	O.3	1	RES1	0.000	
3	  O9	1.397	4.080	26.662	O.3	1	RES1	0.000	
4	 C34	6.165	4.644	29.483	C.2	1	RES1	0.000	
5	 C35	6.172	5.912	30.052	C.2	1	RES1	0.000	
6	 C36	7.211	6.557	30.884	C.2	1	RES1	0.000	
7	 C37	8.560	6.092	30.797	C.2	1	RES1	0.000	
8	 C38	9.564	6.685	31.555	C.2	1	RES1	0.000	
9	 C39	9.260	7.778	32.382	C.2	1	RES1	0.000	
10	 C40	7.957	8.263	32.459	C.2	1	RES1	0.000	
11	 C41	6.958	7.653	31.703	C.2	1	RES1	0.000	
12	 C42	4.103	5.414	28.719	C.2	1	RES1	0.000	
13	 C43	2.903	5.383	28.007	C.2	1	RES1	0.000	
14	 C44	2.564	4.203	27.364	C.2	1	RES1	0.000	
15	 C45	3.440	3.113	27.362	C.2	1	RES1	0.000	
16	 C46	4.649	3.175	28.046	C.2	1	RES1	0.000	
17	 C47	4.999	4.348	28.717	C.2	1	RES1	0.000	
@<TRIPOS>BOND
1 1 5 ar
2 1 12 ar
3 4 5 ar
4 4 17 ar
5 5 6 1
6 6 7 ar
7 6 11 ar
8 7 8 ar
9 8 9 ar
10 2 9 1
11 9 10 ar
12 10 11 ar
13 12 13 ar
14 12 17 ar
15 13 14 ar
16 3 14 1
17 14 15 ar
18 15 16 ar
19 16 17 ar
@<TRIPOS>SUBSTRUCTURE
1	RES1	1	GROUP	1 ****	RES
