# created with PyMOL 2.5.2
@<TRIPOS>MOLECULE
ER_1GWQ_TargetProtein
17 19 1                 
SMALL
USER_CHARGES
@<TRIPOS>ATOM
1	  S1	4.708	6.767	29.645	S.2	1	RES1	0.000	
2	  O8	10.264	8.337	33.119	O.3	1	RES1	0.000	
3	  O9	1.396	4.070	26.653	O.3	1	RES1	0.000	
4	 C35	6.164	4.673	29.476	C.2	1	RES1	0.000	
5	 C36	6.182	5.915	30.023	C.2	1	RES1	0.000	
6	 C37	7.228	6.552	30.868	C.2	1	RES1	0.000	
7	 C38	6.961	7.669	31.677	C.2	1	RES1	0.000	
8	 C39	7.948	8.284	32.426	C.2	1	RES1	0.000	
9	 C40	9.258	7.782	32.368	C.2	1	RES1	0.000	
10	 C41	9.556	6.685	31.584	C.2	1	RES1	0.000	
11	 C42	8.536	6.065	30.844	C.2	1	RES1	0.000	
12	 C43	4.093	5.406	28.718	C.2	1	RES1	0.000	
13	 C44	2.907	5.359	28.048	C.2	1	RES1	0.000	
14	 C45	2.574	4.194	27.371	C.2	1	RES1	0.000	
15	 C46	3.442	3.120	27.342	C.2	1	RES1	0.000	
16	 C47	4.644	3.183	28.031	C.2	1	RES1	0.000	
17	 C48	5.023	4.358	28.710	C.2	1	RES1	0.000	
@<TRIPOS>BOND
1 1 5 ar
2 1 12 ar
3 4 5 ar
4 4 17 ar
5 5 6 1
6 6 7 ar
7 6 11 ar
8 7 8 ar
9 8 9 ar
10 2 9 1
11 9 10 ar
12 10 11 ar
13 12 13 ar
14 12 17 ar
15 13 14 ar
16 3 14 1
17 14 15 ar
18 15 16 ar
19 16 17 ar
@<TRIPOS>SUBSTRUCTURE
1	RES1	1	GROUP	1 ****	RES
