# created with PyMOL 2.5.2
@<TRIPOS>MOLECULE
ER_1GWQ_TargetProtein
17 19 1                 
SMALL
USER_CHARGES
@<TRIPOS>ATOM
1	  S1	4.735	6.766	29.622	S.2	1	RES1	0.000	
2	  O8	10.282	8.366	33.089	O.3	1	RES1	0.000	
3	  O9	1.377	4.080	26.660	O.3	1	RES1	0.000	
4	 C36	6.180	4.649	29.480	C.2	1	RES1	0.000	
5	 C37	6.175	5.900	30.042	C.2	1	RES1	0.000	
6	 C38	7.221	6.553	30.891	C.2	1	RES1	0.000	
7	 C39	6.931	7.651	31.699	C.2	1	RES1	0.000	
8	 C40	7.960	8.283	32.454	C.2	1	RES1	0.000	
9	 C41	9.268	7.784	32.376	C.2	1	RES1	0.000	
10	 C42	9.554	6.685	31.586	C.2	1	RES1	0.000	
11	 C43	8.541	6.085	30.829	C.2	1	RES1	0.000	
12	 C44	4.103	5.436	28.712	C.2	1	RES1	0.000	
13	 C45	2.886	5.380	28.017	C.2	1	RES1	0.000	
14	 C46	2.572	4.198	27.364	C.2	1	RES1	0.000	
15	 C47	3.447	3.099	27.330	C.2	1	RES1	0.000	
16	 C48	4.659	3.175	28.034	C.2	1	RES1	0.000	
17	 C49	4.993	4.331	28.719	C.2	1	RES1	0.000	
@<TRIPOS>BOND
1 1 5 ar
2 1 12 ar
3 4 5 ar
4 4 17 ar
5 5 6 1
6 6 7 ar
7 6 11 ar
8 7 8 ar
9 8 9 ar
10 2 9 1
11 9 10 ar
12 10 11 ar
13 12 13 ar
14 12 17 ar
15 13 14 ar
16 3 14 1
17 14 15 ar
18 15 16 ar
19 16 17 ar
@<TRIPOS>SUBSTRUCTURE
1	RES1	1	GROUP	1 ****	RES
