# created with PyMOL 2.5.2
@<TRIPOS>MOLECULE
ER_1GWQ_TargetProtein
17 19 1                 
SMALL
USER_CHARGES
@<TRIPOS>ATOM
1	  S1	4.753	6.783	29.574	S.2	1	RES1	0.000	
2	  O8	10.264	8.289	33.163	O.3	1	RES1	0.000	
3	  O9	1.387	4.042	26.674	O.3	1	RES1	0.000	
4	 C37	6.161	4.664	29.487	C.2	1	RES1	0.000	
5	 C38	6.174	5.948	30.018	C.2	1	RES1	0.000	
6	 C39	7.233	6.596	30.823	C.2	1	RES1	0.000	
7	 C40	8.551	6.120	30.767	C.2	1	RES1	0.000	
8	 C41	9.541	6.707	31.547	C.2	1	RES1	0.000	
9	 C42	9.253	7.748	32.395	C.2	1	RES1	0.000	
10	 C43	7.945	8.245	32.487	C.2	1	RES1	0.000	
11	 C44	6.946	7.674	31.706	C.2	1	RES1	0.000	
12	 C45	4.104	5.431	28.716	C.2	1	RES1	0.000	
13	 C46	2.902	5.375	28.027	C.2	1	RES1	0.000	
14	 C47	2.581	4.172	27.369	C.2	1	RES1	0.000	
15	 C48	3.424	3.092	27.391	C.2	1	RES1	0.000	
16	 C49	4.652	3.164	28.046	C.2	1	RES1	0.000	
17	 C50	5.013	4.372	28.713	C.2	1	RES1	0.000	
@<TRIPOS>BOND
1 1 5 ar
2 1 12 ar
3 4 5 ar
4 4 17 ar
5 5 6 1
6 6 7 ar
7 6 11 ar
8 7 8 ar
9 8 9 ar
10 2 9 1
11 9 10 ar
12 10 11 ar
13 12 13 ar
14 12 17 ar
15 13 14 ar
16 3 14 1
17 14 15 ar
18 15 16 ar
19 16 17 ar
@<TRIPOS>SUBSTRUCTURE
1	RES1	1	GROUP	1 ****	RES
