# created with PyMOL 2.5.2
@<TRIPOS>MOLECULE
ER_1GWQ_TargetProtein
17 19 1                 
SMALL
USER_CHARGES
@<TRIPOS>ATOM
1	  S1	4.714	6.752	29.623	S.2	1	RES1	0.000	
2	  O9	10.248	8.293	33.191	O.3	1	RES1	0.000	
3	 O10	1.385	4.042	26.717	O.3	1	RES1	0.000	
4	 C33	6.186	4.677	29.443	C.2	1	RES1	0.000	
5	 C34	6.192	5.963	30.001	C.2	1	RES1	0.000	
6	 C35	7.244	6.610	30.817	C.2	1	RES1	0.000	
7	 C36	6.970	7.722	31.636	C.2	1	RES1	0.000	
8	 C37	7.957	8.295	32.421	C.2	1	RES1	0.000	
9	 C38	9.261	7.767	32.401	C.2	1	RES1	0.000	
10	 C39	9.540	6.644	31.614	C.2	1	RES1	0.000	
11	 C40	8.531	6.051	30.833	C.2	1	RES1	0.000	
12	 C41	4.093	5.425	28.728	C.2	1	RES1	0.000	
13	 C42	2.867	5.349	28.050	C.2	1	RES1	0.000	
14	 C43	2.560	4.179	27.400	C.2	1	RES1	0.000	
15	 C44	3.438	3.098	27.344	C.2	1	RES1	0.000	
16	 C45	4.680	3.189	27.996	C.2	1	RES1	0.000	
17	 C46	5.021	4.360	28.689	C.2	1	RES1	0.000	
@<TRIPOS>BOND
1 1 5 ar
2 1 12 ar
3 3 14 1
4 4 5 ar
5 4 17 ar
6 5 6 1
7 6 7 ar
8 6 11 ar
9 7 8 ar
10 8 9 ar
11 2 9 1
12 9 10 ar
13 10 11 ar
14 12 13 ar
15 12 17 ar
16 13 14 ar
17 14 15 ar
18 15 16 ar
19 16 17 ar
@<TRIPOS>SUBSTRUCTURE
1	RES1	1	GROUP	1 ****	RES
