# created with PyMOL 2.5.2
@<TRIPOS>MOLECULE
ER_1GWQ_TargetProtein
17 19 1                 
SMALL
USER_CHARGES
@<TRIPOS>ATOM
1	  S1	4.705	6.745	29.614	S.2	1	RES1	0.000	
2	 O10	10.236	8.299	33.183	O.3	1	RES1	0.000	
3	 O11	1.353	4.038	26.725	O.3	1	RES1	0.000	
4	 C35	6.212	4.685	29.441	C.2	1	RES1	0.000	
5	 C36	6.184	5.946	29.999	C.2	1	RES1	0.000	
6	 C37	7.240	6.606	30.799	C.2	1	RES1	0.000	
7	 C38	6.961	7.713	31.646	C.2	1	RES1	0.000	
8	 C39	7.956	8.284	32.427	C.2	1	RES1	0.000	
9	 C40	9.250	7.751	32.415	C.2	1	RES1	0.000	
10	 C41	9.528	6.652	31.588	C.2	1	RES1	0.000	
11	 C42	8.552	6.064	30.840	C.2	1	RES1	0.000	
12	 C43	4.121	5.435	28.723	C.2	1	RES1	0.000	
13	 C44	2.896	5.358	28.041	C.2	1	RES1	0.000	
14	 C45	2.576	4.186	27.392	C.2	1	RES1	0.000	
15	 C46	3.446	3.100	27.347	C.2	1	RES1	0.000	
16	 C47	4.664	3.196	28.019	C.2	1	RES1	0.000	
17	 C48	5.004	4.365	28.703	C.2	1	RES1	0.000	
@<TRIPOS>BOND
1 1 5 ar
2 1 12 ar
3 2 9 1
4 3 14 1
5 4 5 ar
6 4 17 ar
7 5 6 1
8 6 7 ar
9 6 11 ar
10 7 8 ar
11 8 9 ar
12 9 10 ar
13 10 11 ar
14 12 13 ar
15 12 17 ar
16 13 14 ar
17 14 15 ar
18 15 16 ar
19 16 17 ar
@<TRIPOS>SUBSTRUCTURE
1	RES1	1	GROUP	1 ****	RES
