# created with PyMOL 2.5.2
@<TRIPOS>MOLECULE
ER_1GWQ_TargetProtein
17 19 1                 
SMALL
USER_CHARGES
@<TRIPOS>ATOM
1	  S1	4.735	6.784	29.587	S.2	1	RES1	0.000	
2	 O11	10.264	8.305	33.177	O.3	1	RES1	0.000	
3	 O12	1.363	4.043	26.688	O.3	1	RES1	0.000	
4	 C37	6.156	4.659	29.464	C.2	1	RES1	0.000	
5	 C38	6.181	5.942	29.998	C.2	1	RES1	0.000	
6	 C39	7.244	6.591	30.820	C.2	1	RES1	0.000	
7	 C40	8.580	6.105	30.782	C.2	1	RES1	0.000	
8	 C41	9.544	6.701	31.572	C.2	1	RES1	0.000	
9	 C42	9.261	7.783	32.413	C.2	1	RES1	0.000	
10	 C43	7.951	8.245	32.481	C.2	1	RES1	0.000	
11	 C44	6.940	7.658	31.687	C.2	1	RES1	0.000	
12	 C45	4.111	5.424	28.687	C.2	1	RES1	0.000	
13	 C46	2.898	5.372	28.011	C.2	1	RES1	0.000	
14	 C47	2.570	4.170	27.387	C.2	1	RES1	0.000	
15	 C48	3.435	3.099	27.379	C.2	1	RES1	0.000	
16	 C49	4.645	3.188	28.046	C.2	1	RES1	0.000	
17	 C50	5.006	4.351	28.727	C.2	1	RES1	0.000	
@<TRIPOS>BOND
1 1 5 ar
2 1 12 ar
3 2 9 1
4 3 14 1
5 4 5 ar
6 4 17 ar
7 5 6 1
8 6 7 ar
9 6 11 ar
10 7 8 ar
11 8 9 ar
12 9 10 ar
13 10 11 ar
14 12 13 ar
15 12 17 ar
16 13 14 ar
17 14 15 ar
18 15 16 ar
19 16 17 ar
@<TRIPOS>SUBSTRUCTURE
1	RES1	1	GROUP	1 ****	RES
