# created with PyMOL 2.5.2
@<TRIPOS>MOLECULE
ER_1GWQ_TargetProtein
17 19 1                 
SMALL
USER_CHARGES
@<TRIPOS>ATOM
1	  S1	4.726	6.724	29.615	S.2	1	RES1	0.000	
2	 O12	10.292	8.362	33.082	O.3	1	RES1	0.000	
3	 O13	1.392	4.092	26.642	O.3	1	RES1	0.000	
4	 C39	6.181	4.643	29.504	C.2	1	RES1	0.000	
5	 C40	6.170	5.905	30.053	C.2	1	RES1	0.000	
6	 C41	7.204	6.564	30.891	C.2	1	RES1	0.000	
7	 C42	6.956	7.669	31.698	C.2	1	RES1	0.000	
8	 C43	7.944	8.269	32.437	C.2	1	RES1	0.000	
9	 C44	9.251	7.779	32.375	C.2	1	RES1	0.000	
10	 C45	9.556	6.681	31.570	C.2	1	RES1	0.000	
11	 C46	8.537	6.091	30.832	C.2	1	RES1	0.000	
12	 C47	4.104	5.411	28.701	C.2	1	RES1	0.000	
13	 C48	2.880	5.383	28.049	C.2	1	RES1	0.000	
14	 C49	2.595	4.209	27.352	C.2	1	RES1	0.000	
15	 C50	3.443	3.110	27.348	C.2	1	RES1	0.000	
16	 C51	4.662	3.181	28.023	C.2	1	RES1	0.000	
17	 C52	4.993	4.348	28.730	C.2	1	RES1	0.000	
@<TRIPOS>BOND
1 1 5 ar
2 1 12 ar
3 2 9 1
4 3 14 1
5 4 5 ar
6 4 17 ar
7 5 6 1
8 6 7 ar
9 6 11 ar
10 7 8 ar
11 8 9 ar
12 9 10 ar
13 10 11 ar
14 12 13 ar
15 12 17 ar
16 13 14 ar
17 14 15 ar
18 15 16 ar
19 16 17 ar
@<TRIPOS>SUBSTRUCTURE
1	RES1	1	GROUP	1 ****	RES
