# created with PyMOL 2.5.2
@<TRIPOS>MOLECULE
ER_1GWQ_TargetProtein
17 19 1                 
SMALL
USER_CHARGES
@<TRIPOS>ATOM
1	  S1	4.723	6.727	29.614	S.2	1	RES1	0.000	
2	 O13	10.282	8.365	33.110	O.3	1	RES1	0.000	
3	 O14	1.402	4.080	26.664	O.3	1	RES1	0.000	
4	 C41	6.167	4.648	29.487	C.2	1	RES1	0.000	
5	 C42	6.163	5.907	30.035	C.2	1	RES1	0.000	
6	 C43	7.209	6.552	30.875	C.2	1	RES1	0.000	
7	 C44	6.948	7.676	31.693	C.2	1	RES1	0.000	
8	 C45	7.965	8.280	32.435	C.2	1	RES1	0.000	
9	 C46	9.255	7.761	32.389	C.2	1	RES1	0.000	
10	 C47	9.538	6.674	31.582	C.2	1	RES1	0.000	
11	 C48	8.552	6.102	30.805	C.2	1	RES1	0.000	
12	 C49	4.103	5.444	28.721	C.2	1	RES1	0.000	
13	 C50	2.917	5.357	28.045	C.2	1	RES1	0.000	
14	 C51	2.575	4.187	27.347	C.2	1	RES1	0.000	
15	 C52	3.442	3.122	27.347	C.2	1	RES1	0.000	
16	 C53	4.644	3.204	28.039	C.2	1	RES1	0.000	
17	 C54	5.001	4.336	28.715	C.2	1	RES1	0.000	
@<TRIPOS>BOND
1 1 5 ar
2 1 12 ar
3 2 9 1
4 3 14 1
5 4 5 ar
6 4 17 ar
7 5 6 1
8 6 7 ar
9 6 11 ar
10 7 8 ar
11 8 9 ar
12 9 10 ar
13 10 11 ar
14 12 13 ar
15 12 17 ar
16 13 14 ar
17 14 15 ar
18 15 16 ar
19 16 17 ar
@<TRIPOS>SUBSTRUCTURE
1	RES1	1	GROUP	1 ****	RES
