# created with PyMOL 2.5.2
@<TRIPOS>MOLECULE
ER_1GWQ_TargetProtein
17 19 1                 
SMALL
USER_CHARGES
@<TRIPOS>ATOM
1	  S1	4.730	6.741	29.630	S.2	1	RES1	0.000	
2	 O14	10.256	8.366	33.130	O.3	1	RES1	0.000	
3	 O15	1.377	4.068	26.692	O.3	1	RES1	0.000	
4	 C43	6.173	4.646	29.476	C.2	1	RES1	0.000	
5	 C44	6.197	5.929	30.021	C.2	1	RES1	0.000	
6	 C45	7.235	6.549	30.869	C.2	1	RES1	0.000	
7	 C46	6.968	7.665	31.653	C.2	1	RES1	0.000	
8	 C47	7.945	8.290	32.404	C.2	1	RES1	0.000	
9	 C48	9.241	7.765	32.390	C.2	1	RES1	0.000	
10	 C49	9.542	6.675	31.611	C.2	1	RES1	0.000	
11	 C50	8.550	6.074	30.844	C.2	1	RES1	0.000	
12	 C51	4.116	5.408	28.716	C.2	1	RES1	0.000	
13	 C52	2.880	5.381	28.052	C.2	1	RES1	0.000	
14	 C53	2.581	4.195	27.370	C.2	1	RES1	0.000	
15	 C54	3.421	3.117	27.340	C.2	1	RES1	0.000	
16	 C55	4.658	3.185	27.994	C.2	1	RES1	0.000	
17	 C56	5.014	4.367	28.711	C.2	1	RES1	0.000	
@<TRIPOS>BOND
1 1 5 ar
2 1 12 ar
3 2 9 1
4 3 14 1
5 4 5 ar
6 4 17 ar
7 5 6 1
8 6 7 ar
9 6 11 ar
10 7 8 ar
11 8 9 ar
12 9 10 ar
13 10 11 ar
14 12 13 ar
15 12 17 ar
16 13 14 ar
17 14 15 ar
18 15 16 ar
19 16 17 ar
@<TRIPOS>SUBSTRUCTURE
1	RES1	1	GROUP	1 ****	RES
