# created with PyMOL 2.5.2
@<TRIPOS>MOLECULE
BRD2_4A9J_TargetProtein
24 27 1                 
SMALL
USER_CHARGES
@<TRIPOS>ATOM
1	 CL1	19.294	18.128	-10.464	Cl	1	RES1	0.000	
2	  C1	14.877	10.618	-11.047	C.3	1	RES1	0.000	
3	  N1	19.679	9.523	-9.392	N.2	1	RES1	0.000	
4	  S1	16.988	9.531	-9.684	S.2	1	RES1	0.000	
5	  C2	16.330	10.674	-10.796	C.2	1	RES1	0.000	
6	  N2	21.085	8.286	-8.195	N.2	1	RES1	0.000	
7	  C3	17.274	11.547	-11.304	C.2	1	RES1	0.000	
8	  N3	21.781	8.841	-9.234	N.2	1	RES1	0.000	
9	  C4	16.957	12.596	-12.299	C.3	1	RES1	0.000	
10	  C5	18.593	11.301	-10.738	C.2	1	RES1	0.000	
11	  C6	18.568	10.150	-9.923	C.2	1	RES1	0.000	
12	  C7	19.853	8.692	-8.260	C.2	1	RES1	0.000	
13	  C8	18.795	8.371	-7.256	C.3	1	RES1	0.000	
14	  N8	20.969	11.667	-11.149	N.2	1	RES1	0.000	
15	  C9	20.941	9.547	-9.926	C.2	1	RES1	0.000	
16	 C10	21.216	10.215	-11.239	C.3	1	RES1	0.000	
17	 C11	22.648	10.025	-11.702	C.3	1	RES1	0.000	
18	 C40	19.786	12.145	-10.927	C.2	1	RES1	0.000	
19	 C41	19.627	13.631	-10.822	C.2	1	RES1	0.000	
20	 C42	18.468	14.206	-10.265	C.2	1	RES1	0.000	
21	 C43	18.369	15.593	-10.180	C.2	1	RES1	0.000	
22	 C44	19.428	16.412	-10.582	C.2	1	RES1	0.000	
23	 C45	20.574	15.863	-11.129	C.2	1	RES1	0.000	
24	 C46	20.695	14.463	-11.223	C.2	1	RES1	0.000	
@<TRIPOS>BOND
1 1 22 1
2 2 5 1
3 3 11 1
4 3 12 ar
5 3 15 ar
6 4 5 ar
7 4 11 ar
8 5 7 ar
9 6 8 ar
10 6 12 ar
11 7 9 1
12 7 10 ar
13 8 15 ar
14 10 11 ar
15 12 13 1
16 14 16 1
17 15 16 1
18 16 17 1
19 10 18 1
20 14 18 2
21 18 19 1
22 19 20 ar
23 19 24 ar
24 20 21 ar
25 21 22 ar
26 22 23 ar
27 23 24 ar
@<TRIPOS>SUBSTRUCTURE
1	RES1	1	GROUP	1 ****	RES
