# created with PyMOL 2.5.2
@<TRIPOS>MOLECULE
ER_1GWQ_TargetProtein
17 19 1                 
SMALL
USER_CHARGES
@<TRIPOS>ATOM
1	  S1	4.733	6.780	29.561	S.2	1	RES1	0.000	
2	  O7	10.227	8.339	33.182	O.3	1	RES1	0.000	
3	  O8	1.377	4.054	26.695	O.3	1	RES1	0.000	
4	 C30	6.167	4.670	29.463	C.2	1	RES1	0.000	
5	 C31	6.196	5.943	29.992	C.2	1	RES1	0.000	
6	 C32	7.227	6.594	30.801	C.2	1	RES1	0.000	
7	 C33	8.554	6.118	30.783	C.2	1	RES1	0.000	
8	 C34	9.580	6.690	31.535	C.2	1	RES1	0.000	
9	 C35	9.245	7.755	32.426	C.2	1	RES1	0.000	
10	 C36	7.948	8.235	32.494	C.2	1	RES1	0.000	
11	 C37	6.974	7.639	31.693	C.2	1	RES1	0.000	
12	 C38	4.125	5.425	28.699	C.2	1	RES1	0.000	
13	 C39	2.911	5.376	28.025	C.2	1	RES1	0.000	
14	 C40	2.565	4.169	27.366	C.2	1	RES1	0.000	
15	 C41	3.425	3.100	27.401	C.2	1	RES1	0.000	
16	 C42	4.633	3.181	28.053	C.2	1	RES1	0.000	
17	 C43	4.999	4.353	28.735	C.2	1	RES1	0.000	
@<TRIPOS>BOND
1 1 5 ar
2 1 12 ar
3 4 5 ar
4 4 17 ar
5 5 6 1
6 6 7 ar
7 6 11 ar
8 7 8 ar
9 8 9 ar
10 2 9 1
11 9 10 ar
12 10 11 ar
13 12 13 ar
14 12 17 ar
15 13 14 ar
16 3 14 1
17 14 15 ar
18 15 16 ar
19 16 17 ar
@<TRIPOS>SUBSTRUCTURE
1	RES1	1	GROUP	1 ****	RES
