# created with PyMOL 2.5.2
@<TRIPOS>MOLECULE
ER_1GWQ_TargetProtein
17 19 1                 
SMALL
USER_CHARGES
@<TRIPOS>ATOM
1	  S1	4.734	6.749	29.610	S.2	1	RES1	0.000	
2	  O7	10.249	8.403	33.117	O.3	1	RES1	0.000	
3	  O8	1.378	4.088	26.658	O.3	1	RES1	0.000	
4	 C32	6.180	4.635	29.489	C.2	1	RES1	0.000	
5	 C33	6.181	5.896	30.033	C.2	1	RES1	0.000	
6	 C34	7.217	6.537	30.874	C.2	1	RES1	0.000	
7	 C35	8.552	6.055	30.807	C.2	1	RES1	0.000	
8	 C36	9.565	6.682	31.550	C.2	1	RES1	0.000	
9	 C37	9.257	7.778	32.391	C.2	1	RES1	0.000	
10	 C38	7.954	8.268	32.436	C.2	1	RES1	0.000	
11	 C39	6.955	7.672	31.716	C.2	1	RES1	0.000	
12	 C40	4.092	5.417	28.714	C.2	1	RES1	0.000	
13	 C41	2.896	5.380	28.035	C.2	1	RES1	0.000	
14	 C42	2.597	4.197	27.349	C.2	1	RES1	0.000	
15	 C43	3.437	3.122	27.347	C.2	1	RES1	0.000	
16	 C44	4.640	3.195	28.042	C.2	1	RES1	0.000	
17	 C45	5.001	4.343	28.734	C.2	1	RES1	0.000	
@<TRIPOS>BOND
1 1 5 ar
2 1 12 ar
3 4 5 ar
4 4 17 ar
5 5 6 1
6 6 7 ar
7 6 11 ar
8 7 8 ar
9 8 9 ar
10 2 9 1
11 9 10 ar
12 10 11 ar
13 12 13 ar
14 12 17 ar
15 13 14 ar
16 3 14 1
17 14 15 ar
18 15 16 ar
19 16 17 ar
@<TRIPOS>SUBSTRUCTURE
1	RES1	1	GROUP	1 ****	RES
