# created with PyMOL 2.5.2
@<TRIPOS>MOLECULE
ER_1GWQ_TargetProtein
17 19 1                 
SMALL
USER_CHARGES
@<TRIPOS>ATOM
1	  S1	4.746	6.739	29.623	S.2	1	RES1	0.000	
2	  O7	10.269	8.369	33.113	O.3	1	RES1	0.000	
3	  O8	1.386	4.104	26.661	O.3	1	RES1	0.000	
4	 C33	6.163	4.634	29.482	C.2	1	RES1	0.000	
5	 C34	6.186	5.899	30.043	C.2	1	RES1	0.000	
6	 C35	7.232	6.538	30.907	C.2	1	RES1	0.000	
7	 C36	6.951	7.656	31.688	C.2	1	RES1	0.000	
8	 C37	7.945	8.260	32.446	C.2	1	RES1	0.000	
9	 C38	9.251	7.791	32.364	C.2	1	RES1	0.000	
10	 C39	9.556	6.714	31.583	C.2	1	RES1	0.000	
11	 C40	8.546	6.106	30.807	C.2	1	RES1	0.000	
12	 C41	4.130	5.429	28.701	C.2	1	RES1	0.000	
13	 C42	2.903	5.369	28.016	C.2	1	RES1	0.000	
14	 C43	2.569	4.204	27.367	C.2	1	RES1	0.000	
15	 C44	3.429	3.111	27.345	C.2	1	RES1	0.000	
16	 C45	4.632	3.167	28.031	C.2	1	RES1	0.000	
17	 C46	4.992	4.330	28.725	C.2	1	RES1	0.000	
@<TRIPOS>BOND
1 1 5 ar
2 1 12 ar
3 4 5 ar
4 4 17 ar
5 5 6 1
6 6 7 ar
7 6 11 ar
8 7 8 ar
9 8 9 ar
10 2 9 1
11 9 10 ar
12 10 11 ar
13 12 13 ar
14 12 17 ar
15 13 14 ar
16 3 14 1
17 14 15 ar
18 15 16 ar
19 16 17 ar
@<TRIPOS>SUBSTRUCTURE
1	RES1	1	GROUP	1 ****	RES
