# created with PyMOL 2.5.2
@<TRIPOS>MOLECULE
ER_1GWQ_TargetProtein
17 19 1                 
SMALL
USER_CHARGES
@<TRIPOS>ATOM
1	  S1	4.729	6.738	29.629	S.2	1	RES1	0.000	
2	  O7	10.214	8.403	33.136	O.3	1	RES1	0.000	
3	  O8	1.363	4.088	26.685	O.3	1	RES1	0.000	
4	 C34	6.178	4.654	29.471	C.2	1	RES1	0.000	
5	 C35	6.206	5.910	30.033	C.2	1	RES1	0.000	
6	 C36	7.227	6.527	30.870	C.2	1	RES1	0.000	
7	 C37	8.552	6.070	30.829	C.2	1	RES1	0.000	
8	 C38	9.562	6.679	31.592	C.2	1	RES1	0.000	
9	 C39	9.253	7.776	32.391	C.2	1	RES1	0.000	
10	 C40	7.984	8.279	32.410	C.2	1	RES1	0.000	
11	 C41	6.956	7.659	31.676	C.2	1	RES1	0.000	
12	 C42	4.129	5.416	28.700	C.2	1	RES1	0.000	
13	 C43	2.894	5.383	28.049	C.2	1	RES1	0.000	
14	 C44	2.570	4.201	27.346	C.2	1	RES1	0.000	
15	 C45	3.424	3.107	27.342	C.2	1	RES1	0.000	
16	 C46	4.640	3.184	28.010	C.2	1	RES1	0.000	
17	 C47	5.005	4.351	28.731	C.2	1	RES1	0.000	
@<TRIPOS>BOND
1 1 5 ar
2 1 12 ar
3 4 5 ar
4 4 17 ar
5 5 6 1
6 6 7 ar
7 6 11 ar
8 7 8 ar
9 8 9 ar
10 2 9 1
11 9 10 ar
12 10 11 ar
13 12 13 ar
14 12 17 ar
15 13 14 ar
16 3 14 1
17 14 15 ar
18 15 16 ar
19 16 17 ar
@<TRIPOS>SUBSTRUCTURE
1	RES1	1	GROUP	1 ****	RES
