# created with PyMOL 2.5.2
@<TRIPOS>MOLECULE
ER_1GWQ_TargetProtein
17 19 1                 
SMALL
USER_CHARGES
@<TRIPOS>ATOM
1	  S1	4.730	6.749	29.625	S.2	1	RES1	0.000	
2	  O7	10.285	8.370	33.089	O.3	1	RES1	0.000	
3	  O8	1.391	4.089	26.650	O.3	1	RES1	0.000	
4	 C35	6.166	4.644	29.486	C.2	1	RES1	0.000	
5	 C36	6.180	5.884	30.038	C.2	1	RES1	0.000	
6	 C37	7.211	6.540	30.889	C.2	1	RES1	0.000	
7	 C38	6.937	7.660	31.695	C.2	1	RES1	0.000	
8	 C39	7.938	8.286	32.446	C.2	1	RES1	0.000	
9	 C40	9.261	7.786	32.363	C.2	1	RES1	0.000	
10	 C41	9.563	6.692	31.579	C.2	1	RES1	0.000	
11	 C42	8.551	6.092	30.842	C.2	1	RES1	0.000	
12	 C43	4.123	5.421	28.728	C.2	1	RES1	0.000	
13	 C44	2.903	5.374	28.044	C.2	1	RES1	0.000	
14	 C45	2.575	4.215	27.341	C.2	1	RES1	0.000	
15	 C46	3.432	3.105	27.338	C.2	1	RES1	0.000	
16	 C47	4.640	3.172	28.017	C.2	1	RES1	0.000	
17	 C48	5.000	4.342	28.735	C.2	1	RES1	0.000	
@<TRIPOS>BOND
1 1 5 ar
2 1 12 ar
3 4 5 ar
4 4 17 ar
5 5 6 1
6 6 7 ar
7 6 11 ar
8 7 8 ar
9 8 9 ar
10 2 9 1
11 9 10 ar
12 10 11 ar
13 12 13 ar
14 12 17 ar
15 13 14 ar
16 3 14 1
17 14 15 ar
18 15 16 ar
19 16 17 ar
@<TRIPOS>SUBSTRUCTURE
1	RES1	1	GROUP	1 ****	RES
