# created with PyMOL 2.5.2
@<TRIPOS>MOLECULE
ER_1GWQ_TargetProtein
17 19 1                 
SMALL
USER_CHARGES
@<TRIPOS>ATOM
1	  S1	4.733	6.767	29.590	S.2	1	RES1	0.000	
2	  O7	10.278	8.358	33.107	O.3	1	RES1	0.000	
3	  O8	1.372	4.070	26.650	O.3	1	RES1	0.000	
4	 C36	6.189	4.656	29.470	C.2	1	RES1	0.000	
5	 C37	6.205	5.941	30.042	C.2	1	RES1	0.000	
6	 C38	7.227	6.555	30.858	C.2	1	RES1	0.000	
7	 C39	8.526	6.103	30.800	C.2	1	RES1	0.000	
8	 C40	9.559	6.695	31.577	C.2	1	RES1	0.000	
9	 C41	9.238	7.761	32.399	C.2	1	RES1	0.000	
10	 C42	7.953	8.258	32.458	C.2	1	RES1	0.000	
11	 C43	6.949	7.646	31.708	C.2	1	RES1	0.000	
12	 C44	4.117	5.436	28.730	C.2	1	RES1	0.000	
13	 C45	2.889	5.375	28.016	C.2	1	RES1	0.000	
14	 C46	2.590	4.174	27.365	C.2	1	RES1	0.000	
15	 C47	3.418	3.100	27.356	C.2	1	RES1	0.000	
16	 C48	4.641	3.182	28.039	C.2	1	RES1	0.000	
17	 C49	5.002	4.343	28.740	C.2	1	RES1	0.000	
@<TRIPOS>BOND
1 1 5 ar
2 1 12 ar
3 4 5 ar
4 4 17 ar
5 5 6 1
6 6 7 ar
7 6 11 ar
8 7 8 ar
9 8 9 ar
10 2 9 1
11 9 10 ar
12 10 11 ar
13 12 13 ar
14 12 17 ar
15 13 14 ar
16 3 14 1
17 14 15 ar
18 15 16 ar
19 16 17 ar
@<TRIPOS>SUBSTRUCTURE
1	RES1	1	GROUP	1 ****	RES
