# created with PyMOL 2.5.2
@<TRIPOS>MOLECULE
ER_1GWQ_TargetProtein
17 19 1                 
SMALL
USER_CHARGES
@<TRIPOS>ATOM
1	  S1	4.718	6.755	29.625	S.2	1	RES1	0.000	
2	  O8	10.255	8.289	33.162	O.3	1	RES1	0.000	
3	  O9	1.376	4.025	26.699	O.3	1	RES1	0.000	
4	 C32	6.183	4.696	29.429	C.2	1	RES1	0.000	
5	 C33	6.182	5.962	29.998	C.2	1	RES1	0.000	
6	 C34	7.233	6.614	30.818	C.2	1	RES1	0.000	
7	 C35	6.957	7.704	31.639	C.2	1	RES1	0.000	
8	 C36	7.961	8.277	32.438	C.2	1	RES1	0.000	
9	 C37	9.236	7.766	32.420	C.2	1	RES1	0.000	
10	 C38	9.556	6.648	31.616	C.2	1	RES1	0.000	
11	 C39	8.551	6.066	30.820	C.2	1	RES1	0.000	
12	 C40	4.101	5.430	28.709	C.2	1	RES1	0.000	
13	 C41	2.888	5.348	28.073	C.2	1	RES1	0.000	
14	 C42	2.576	4.176	27.366	C.2	1	RES1	0.000	
15	 C43	3.431	3.102	27.372	C.2	1	RES1	0.000	
16	 C44	4.655	3.199	28.008	C.2	1	RES1	0.000	
17	 C45	5.028	4.366	28.712	C.2	1	RES1	0.000	
@<TRIPOS>BOND
1 1 5 ar
2 1 12 ar
3 4 5 ar
4 4 17 ar
5 5 6 1
6 6 7 ar
7 6 11 ar
8 7 8 ar
9 8 9 ar
10 2 9 1
11 9 10 ar
12 10 11 ar
13 12 13 ar
14 12 17 ar
15 13 14 ar
16 3 14 1
17 14 15 ar
18 15 16 ar
19 16 17 ar
@<TRIPOS>SUBSTRUCTURE
1	RES1	1	GROUP	1 ****	RES
