# created with PyMOL 2.5.2
@<TRIPOS>MOLECULE
ER_1GWQ_TargetProtein
17 19 1                 
SMALL
USER_CHARGES
@<TRIPOS>ATOM
1	  S1	4.745	6.794	29.551	S.2	1	RES1	0.000	
2	  O9	10.264	8.297	33.154	O.3	1	RES1	0.000	
3	 O10	1.396	4.055	26.668	O.3	1	RES1	0.000	
4	 C34	6.164	4.670	29.487	C.2	1	RES1	0.000	
5	 C35	6.174	5.947	30.024	C.2	1	RES1	0.000	
6	 C36	7.217	6.603	30.796	C.2	1	RES1	0.000	
7	 C37	8.587	6.151	30.756	C.2	1	RES1	0.000	
8	 C38	9.565	6.731	31.538	C.2	1	RES1	0.000	
9	 C39	9.248	7.749	32.397	C.2	1	RES1	0.000	
10	 C40	7.935	8.222	32.519	C.2	1	RES1	0.000	
11	 C41	6.949	7.621	31.725	C.2	1	RES1	0.000	
12	 C42	4.113	5.432	28.705	C.2	1	RES1	0.000	
13	 C43	2.898	5.381	28.004	C.2	1	RES1	0.000	
14	 C44	2.585	4.184	27.365	C.2	1	RES1	0.000	
15	 C45	3.423	3.076	27.392	C.2	1	RES1	0.000	
16	 C46	4.626	3.159	28.086	C.2	1	RES1	0.000	
17	 C47	4.998	4.349	28.734	C.2	1	RES1	0.000	
@<TRIPOS>BOND
1 1 5 ar
2 1 12 ar
3 3 14 1
4 4 5 ar
5 4 17 ar
6 5 6 1
7 6 7 ar
8 6 11 ar
9 7 8 ar
10 8 9 ar
11 2 9 1
12 9 10 ar
13 10 11 ar
14 12 13 ar
15 12 17 ar
16 13 14 ar
17 14 15 ar
18 15 16 ar
19 16 17 ar
@<TRIPOS>SUBSTRUCTURE
1	RES1	1	GROUP	1 ****	RES
