# created with PyMOL 2.5.2
@<TRIPOS>MOLECULE
ER_1GWQ_TargetProtein
17 19 1                 
SMALL
USER_CHARGES
@<TRIPOS>ATOM
1	  S1	4.722	6.745	29.616	S.2	1	RES1	0.000	
2	 O10	10.263	8.343	33.112	O.3	1	RES1	0.000	
3	 O11	1.379	4.071	26.668	O.3	1	RES1	0.000	
4	 C36	6.181	4.660	29.478	C.2	1	RES1	0.000	
5	 C37	6.191	5.927	30.035	C.2	1	RES1	0.000	
6	 C38	7.221	6.547	30.867	C.2	1	RES1	0.000	
7	 C39	6.958	7.666	31.684	C.2	1	RES1	0.000	
8	 C40	7.967	8.288	32.431	C.2	1	RES1	0.000	
9	 C41	9.245	7.780	32.382	C.2	1	RES1	0.000	
10	 C42	9.553	6.697	31.599	C.2	1	RES1	0.000	
11	 C43	8.552	6.070	30.842	C.2	1	RES1	0.000	
12	 C44	4.100	5.429	28.701	C.2	1	RES1	0.000	
13	 C45	2.890	5.353	28.045	C.2	1	RES1	0.000	
14	 C46	2.569	4.199	27.360	C.2	1	RES1	0.000	
15	 C47	3.431	3.116	27.350	C.2	1	RES1	0.000	
16	 C48	4.655	3.186	28.001	C.2	1	RES1	0.000	
17	 C49	5.008	4.345	28.734	C.2	1	RES1	0.000	
@<TRIPOS>BOND
1 1 5 ar
2 1 12 ar
3 2 9 1
4 3 14 1
5 4 5 ar
6 4 17 ar
7 5 6 1
8 6 7 ar
9 6 11 ar
10 7 8 ar
11 8 9 ar
12 9 10 ar
13 10 11 ar
14 12 13 ar
15 12 17 ar
16 13 14 ar
17 14 15 ar
18 15 16 ar
19 16 17 ar
@<TRIPOS>SUBSTRUCTURE
1	RES1	1	GROUP	1 ****	RES
