# created with PyMOL 2.5.2
@<TRIPOS>MOLECULE
ER_1GWQ_TargetProtein
17 19 1                 
SMALL
USER_CHARGES
@<TRIPOS>ATOM
1	  S1	4.717	6.744	29.616	S.2	1	RES1	0.000	
2	 O11	10.228	8.398	33.122	O.3	1	RES1	0.000	
3	 O12	1.404	4.087	26.669	O.3	1	RES1	0.000	
4	 C38	6.172	4.639	29.492	C.2	1	RES1	0.000	
5	 C39	6.196	5.923	30.035	C.2	1	RES1	0.000	
6	 C40	7.216	6.549	30.855	C.2	1	RES1	0.000	
7	 C41	8.558	6.075	30.823	C.2	1	RES1	0.000	
8	 C42	9.556	6.681	31.560	C.2	1	RES1	0.000	
9	 C43	9.274	7.772	32.361	C.2	1	RES1	0.000	
10	 C44	7.950	8.249	32.444	C.2	1	RES1	0.000	
11	 C45	6.961	7.650	31.705	C.2	1	RES1	0.000	
12	 C46	4.111	5.419	28.708	C.2	1	RES1	0.000	
13	 C47	2.900	5.387	28.021	C.2	1	RES1	0.000	
14	 C48	2.575	4.201	27.361	C.2	1	RES1	0.000	
15	 C49	3.437	3.111	27.348	C.2	1	RES1	0.000	
16	 C50	4.644	3.192	28.034	C.2	1	RES1	0.000	
17	 C51	4.988	4.343	28.749	C.2	1	RES1	0.000	
@<TRIPOS>BOND
1 1 5 ar
2 1 12 ar
3 2 9 1
4 3 14 1
5 4 5 ar
6 4 17 ar
7 5 6 1
8 6 7 ar
9 6 11 ar
10 7 8 ar
11 8 9 ar
12 9 10 ar
13 10 11 ar
14 12 13 ar
15 12 17 ar
16 13 14 ar
17 14 15 ar
18 15 16 ar
19 16 17 ar
@<TRIPOS>SUBSTRUCTURE
1	RES1	1	GROUP	1 ****	RES
