# created with PyMOL 2.5.2
@<TRIPOS>MOLECULE
ER_1GWQ_TargetProtein
17 19 1                 
SMALL
USER_CHARGES
@<TRIPOS>ATOM
1	  S1	4.725	6.735	29.630	S.2	1	RES1	0.000	
2	 O12	10.232	8.383	33.132	O.3	1	RES1	0.000	
3	 O13	1.370	4.077	26.677	O.3	1	RES1	0.000	
4	 C40	6.167	4.630	29.474	C.2	1	RES1	0.000	
5	 C41	6.194	5.918	30.042	C.2	1	RES1	0.000	
6	 C42	7.226	6.542	30.880	C.2	1	RES1	0.000	
7	 C43	8.538	6.088	30.837	C.2	1	RES1	0.000	
8	 C44	9.564	6.689	31.573	C.2	1	RES1	0.000	
9	 C45	9.267	7.773	32.379	C.2	1	RES1	0.000	
10	 C46	7.986	8.265	32.444	C.2	1	RES1	0.000	
11	 C47	6.943	7.673	31.664	C.2	1	RES1	0.000	
12	 C48	4.096	5.428	28.697	C.2	1	RES1	0.000	
13	 C49	2.902	5.385	28.021	C.2	1	RES1	0.000	
14	 C50	2.584	4.213	27.370	C.2	1	RES1	0.000	
15	 C51	3.418	3.104	27.346	C.2	1	RES1	0.000	
16	 C52	4.650	3.161	28.013	C.2	1	RES1	0.000	
17	 C53	5.024	4.358	28.723	C.2	1	RES1	0.000	
@<TRIPOS>BOND
1 1 5 ar
2 1 12 ar
3 2 9 1
4 3 14 1
5 4 5 ar
6 4 17 ar
7 5 6 1
8 6 7 ar
9 6 11 ar
10 7 8 ar
11 8 9 ar
12 9 10 ar
13 10 11 ar
14 12 13 ar
15 12 17 ar
16 13 14 ar
17 14 15 ar
18 15 16 ar
19 16 17 ar
@<TRIPOS>SUBSTRUCTURE
1	RES1	1	GROUP	1 ****	RES
