# created with PyMOL 2.5.2
@<TRIPOS>MOLECULE
ER_1GWQ_TargetProtein
17 19 1                 
SMALL
USER_CHARGES
@<TRIPOS>ATOM
1	  S1	4.745	6.753	29.608	S.2	1	RES1	0.000	
2	 O13	10.256	8.373	33.128	O.3	1	RES1	0.000	
3	 O14	1.395	4.087	26.676	O.3	1	RES1	0.000	
4	 C42	6.169	4.644	29.469	C.2	1	RES1	0.000	
5	 C43	6.196	5.918	30.026	C.2	1	RES1	0.000	
6	 C44	7.220	6.526	30.873	C.2	1	RES1	0.000	
7	 C45	6.956	7.665	31.678	C.2	1	RES1	0.000	
8	 C46	7.940	8.270	32.436	C.2	1	RES1	0.000	
9	 C47	9.252	7.783	32.395	C.2	1	RES1	0.000	
10	 C48	9.566	6.706	31.578	C.2	1	RES1	0.000	
11	 C49	8.543	6.070	30.817	C.2	1	RES1	0.000	
12	 C50	4.124	5.419	28.717	C.2	1	RES1	0.000	
13	 C51	2.894	5.371	28.041	C.2	1	RES1	0.000	
14	 C52	2.574	4.194	27.375	C.2	1	RES1	0.000	
15	 C53	3.427	3.139	27.352	C.2	1	RES1	0.000	
16	 C54	4.639	3.166	28.010	C.2	1	RES1	0.000	
17	 C55	4.989	4.334	28.727	C.2	1	RES1	0.000	
@<TRIPOS>BOND
1 1 5 ar
2 1 12 ar
3 2 9 1
4 3 14 1
5 4 5 ar
6 4 17 ar
7 5 6 1
8 6 7 ar
9 6 11 ar
10 7 8 ar
11 8 9 ar
12 9 10 ar
13 10 11 ar
14 12 13 ar
15 12 17 ar
16 13 14 ar
17 14 15 ar
18 15 16 ar
19 16 17 ar
@<TRIPOS>SUBSTRUCTURE
1	RES1	1	GROUP	1 ****	RES
