# created with PyMOL 2.5.2
@<TRIPOS>MOLECULE
ER_1GWQ_TargetProtein
17 19 1                 
SMALL
USER_CHARGES
@<TRIPOS>ATOM
1	  S1	4.737	6.766	29.625	S.2	1	RES1	0.000	
2	  O8	10.288	8.358	33.096	O.3	1	RES1	0.000	
3	  O9	1.396	4.081	26.649	O.3	1	RES1	0.000	
4	 C30	6.157	4.646	29.490	C.2	1	RES1	0.000	
5	 C31	6.158	5.912	30.052	C.2	1	RES1	0.000	
6	 C32	7.214	6.569	30.892	C.2	1	RES1	0.000	
7	 C33	6.961	7.683	31.711	C.2	1	RES1	0.000	
8	 C34	7.946	8.256	32.462	C.2	1	RES1	0.000	
9	 C35	9.259	7.770	32.369	C.2	1	RES1	0.000	
10	 C36	9.557	6.691	31.555	C.2	1	RES1	0.000	
11	 C37	8.533	6.084	30.811	C.2	1	RES1	0.000	
12	 C38	4.106	5.418	28.707	C.2	1	RES1	0.000	
13	 C39	2.890	5.375	28.022	C.2	1	RES1	0.000	
14	 C40	2.593	4.192	27.350	C.2	1	RES1	0.000	
15	 C41	3.443	3.102	27.343	C.2	1	RES1	0.000	
16	 C42	4.653	3.170	28.038	C.2	1	RES1	0.000	
17	 C43	4.992	4.347	28.734	C.2	1	RES1	0.000	
@<TRIPOS>BOND
1 1 5 ar
2 1 12 ar
3 4 5 ar
4 4 17 ar
5 5 6 1
6 6 7 ar
7 6 11 ar
8 7 8 ar
9 8 9 ar
10 2 9 1
11 9 10 ar
12 10 11 ar
13 12 13 ar
14 12 17 ar
15 13 14 ar
16 3 14 1
17 14 15 ar
18 15 16 ar
19 16 17 ar
@<TRIPOS>SUBSTRUCTURE
1	RES1	1	GROUP	1 ****	RES
