# created with PyMOL 2.5.2
@<TRIPOS>MOLECULE
ER_1GWQ_TargetProtein
17 19 1                 
SMALL
USER_CHARGES
@<TRIPOS>ATOM
1	  S1	4.746	6.749	29.622	S.2	1	RES1	0.000	
2	  O8	10.271	8.349	33.125	O.3	1	RES1	0.000	
3	  O9	1.380	4.075	26.667	O.3	1	RES1	0.000	
4	 C32	6.164	4.653	29.481	C.2	1	RES1	0.000	
5	 C33	6.195	5.912	30.031	C.2	1	RES1	0.000	
6	 C34	7.212	6.545	30.868	C.2	1	RES1	0.000	
7	 C35	6.963	7.678	31.676	C.2	1	RES1	0.000	
8	 C36	7.949	8.263	32.429	C.2	1	RES1	0.000	
9	 C37	9.245	7.790	32.379	C.2	1	RES1	0.000	
10	 C38	9.560	6.701	31.582	C.2	1	RES1	0.000	
11	 C39	8.547	6.078	30.841	C.2	1	RES1	0.000	
12	 C40	4.094	5.424	28.717	C.2	1	RES1	0.000	
13	 C41	2.876	5.375	28.054	C.2	1	RES1	0.000	
14	 C42	2.584	4.218	27.349	C.2	1	RES1	0.000	
15	 C43	3.445	3.103	27.348	C.2	1	RES1	0.000	
16	 C44	4.658	3.164	28.013	C.2	1	RES1	0.000	
17	 C45	4.997	4.344	28.721	C.2	1	RES1	0.000	
@<TRIPOS>BOND
1 1 5 ar
2 1 12 ar
3 4 5 ar
4 4 17 ar
5 5 6 1
6 6 7 ar
7 6 11 ar
8 7 8 ar
9 8 9 ar
10 2 9 1
11 9 10 ar
12 10 11 ar
13 12 13 ar
14 12 17 ar
15 13 14 ar
16 3 14 1
17 14 15 ar
18 15 16 ar
19 16 17 ar
@<TRIPOS>SUBSTRUCTURE
1	RES1	1	GROUP	1 ****	RES
