# created with PyMOL 2.5.2
@<TRIPOS>MOLECULE
ER_1GWQ_TargetProtein
17 19 1                 
SMALL
USER_CHARGES
@<TRIPOS>ATOM
1	  S1	4.719	6.764	29.618	S.2	1	RES1	0.000	
2	  O8	10.265	8.362	33.113	O.3	1	RES1	0.000	
3	  O9	1.402	4.074	26.670	O.3	1	RES1	0.000	
4	 C33	6.177	4.640	29.479	C.2	1	RES1	0.000	
5	 C34	6.180	5.919	30.047	C.2	1	RES1	0.000	
6	 C35	7.219	6.551	30.874	C.2	1	RES1	0.000	
7	 C36	8.541	6.096	30.800	C.2	1	RES1	0.000	
8	 C37	9.546	6.687	31.553	C.2	1	RES1	0.000	
9	 C38	9.252	7.746	32.380	C.2	1	RES1	0.000	
10	 C39	7.949	8.275	32.464	C.2	1	RES1	0.000	
11	 C40	6.951	7.668	31.690	C.2	1	RES1	0.000	
12	 C41	4.109	5.438	28.703	C.2	1	RES1	0.000	
13	 C42	2.906	5.380	28.036	C.2	1	RES1	0.000	
14	 C43	2.579	4.202	27.357	C.2	1	RES1	0.000	
15	 C44	3.452	3.110	27.354	C.2	1	RES1	0.000	
16	 C45	4.645	3.171	28.055	C.2	1	RES1	0.000	
17	 C46	4.995	4.337	28.707	C.2	1	RES1	0.000	
@<TRIPOS>BOND
1 1 5 ar
2 1 12 ar
3 4 5 ar
4 4 17 ar
5 5 6 1
6 6 7 ar
7 6 11 ar
8 7 8 ar
9 8 9 ar
10 2 9 1
11 9 10 ar
12 10 11 ar
13 12 13 ar
14 12 17 ar
15 13 14 ar
16 3 14 1
17 14 15 ar
18 15 16 ar
19 16 17 ar
@<TRIPOS>SUBSTRUCTURE
1	RES1	1	GROUP	1 ****	RES
