# created with PyMOL 2.5.2
@<TRIPOS>MOLECULE
ER_1GWQ_TargetProtein
17 19 1                 
SMALL
USER_CHARGES
@<TRIPOS>ATOM
1	  S1	4.734	6.751	29.614	S.2	1	RES1	0.000	
2	  O8	10.263	8.353	33.118	O.3	1	RES1	0.000	
3	  O9	1.377	4.072	26.671	O.3	1	RES1	0.000	
4	 C34	6.188	4.660	29.470	C.2	1	RES1	0.000	
5	 C35	6.211	5.926	30.033	C.2	1	RES1	0.000	
6	 C36	7.232	6.536	30.866	C.2	1	RES1	0.000	
7	 C37	6.946	7.669	31.682	C.2	1	RES1	0.000	
8	 C38	7.930	8.269	32.425	C.2	1	RES1	0.000	
9	 C39	9.259	7.801	32.389	C.2	1	RES1	0.000	
10	 C40	9.542	6.671	31.591	C.2	1	RES1	0.000	
11	 C41	8.565	6.074	30.844	C.2	1	RES1	0.000	
12	 C42	4.106	5.417	28.704	C.2	1	RES1	0.000	
13	 C43	2.893	5.386	28.047	C.2	1	RES1	0.000	
14	 C44	2.570	4.192	27.372	C.2	1	RES1	0.000	
15	 C45	3.438	3.094	27.349	C.2	1	RES1	0.000	
16	 C46	4.636	3.182	28.013	C.2	1	RES1	0.000	
17	 C47	4.992	4.370	28.715	C.2	1	RES1	0.000	
@<TRIPOS>BOND
1 1 5 ar
2 1 12 ar
3 4 5 ar
4 4 17 ar
5 5 6 1
6 6 7 ar
7 6 11 ar
8 7 8 ar
9 8 9 ar
10 2 9 1
11 9 10 ar
12 10 11 ar
13 12 13 ar
14 12 17 ar
15 13 14 ar
16 3 14 1
17 14 15 ar
18 15 16 ar
19 16 17 ar
@<TRIPOS>SUBSTRUCTURE
1	RES1	1	GROUP	1 ****	RES
