# created with PyMOL 2.5.2
@<TRIPOS>MOLECULE
ER_1GWQ_TargetProtein
17 19 1                 
SMALL
USER_CHARGES
@<TRIPOS>ATOM
1	  S1	4.725	6.754	29.606	S.2	1	RES1	0.000	
2	  O8	10.253	8.294	33.168	O.3	1	RES1	0.000	
3	  O9	1.367	4.035	26.708	O.3	1	RES1	0.000	
4	 C35	6.194	4.683	29.444	C.2	1	RES1	0.000	
5	 C36	6.203	5.947	30.002	C.2	1	RES1	0.000	
6	 C37	7.223	6.577	30.800	C.2	1	RES1	0.000	
7	 C38	6.955	7.728	31.656	C.2	1	RES1	0.000	
8	 C39	7.958	8.282	32.445	C.2	1	RES1	0.000	
9	 C40	9.244	7.755	32.406	C.2	1	RES1	0.000	
10	 C41	9.547	6.647	31.600	C.2	1	RES1	0.000	
11	 C42	8.549	6.084	30.835	C.2	1	RES1	0.000	
12	 C43	4.096	5.432	28.713	C.2	1	RES1	0.000	
13	 C44	2.879	5.345	28.056	C.2	1	RES1	0.000	
14	 C45	2.570	4.175	27.393	C.2	1	RES1	0.000	
15	 C46	3.443	3.102	27.342	C.2	1	RES1	0.000	
16	 C47	4.677	3.202	28.014	C.2	1	RES1	0.000	
17	 C48	5.006	4.375	28.718	C.2	1	RES1	0.000	
@<TRIPOS>BOND
1 1 5 ar
2 1 12 ar
3 4 5 ar
4 4 17 ar
5 5 6 1
6 6 7 ar
7 6 11 ar
8 7 8 ar
9 8 9 ar
10 2 9 1
11 9 10 ar
12 10 11 ar
13 12 13 ar
14 12 17 ar
15 13 14 ar
16 3 14 1
17 14 15 ar
18 15 16 ar
19 16 17 ar
@<TRIPOS>SUBSTRUCTURE
1	RES1	1	GROUP	1 ****	RES
