# created with PyMOL 2.5.2
@<TRIPOS>MOLECULE
ER_1GWQ_TargetProtein
17 19 1                 
SMALL
USER_CHARGES
@<TRIPOS>ATOM
1	  S1	4.747	6.761	29.594	S.2	1	RES1	0.000	
2	  O8	10.290	8.344	33.124	O.3	1	RES1	0.000	
3	  O9	1.399	4.062	26.663	O.3	1	RES1	0.000	
4	 C36	6.149	4.662	29.502	C.2	1	RES1	0.000	
5	 C37	6.164	5.926	30.056	C.2	1	RES1	0.000	
6	 C38	7.225	6.564	30.876	C.2	1	RES1	0.000	
7	 C39	8.527	6.114	30.799	C.2	1	RES1	0.000	
8	 C40	9.562	6.691	31.550	C.2	1	RES1	0.000	
9	 C41	9.233	7.775	32.387	C.2	1	RES1	0.000	
10	 C42	7.983	8.252	32.456	C.2	1	RES1	0.000	
11	 C43	6.935	7.656	31.697	C.2	1	RES1	0.000	
12	 C44	4.112	5.416	28.717	C.2	1	RES1	0.000	
13	 C45	2.890	5.370	28.023	C.2	1	RES1	0.000	
14	 C46	2.576	4.213	27.352	C.2	1	RES1	0.000	
15	 C47	3.437	3.084	27.361	C.2	1	RES1	0.000	
16	 C48	4.646	3.187	28.025	C.2	1	RES1	0.000	
17	 C49	5.013	4.342	28.722	C.2	1	RES1	0.000	
@<TRIPOS>BOND
1 1 5 ar
2 1 12 ar
3 4 5 ar
4 4 17 ar
5 5 6 1
6 6 7 ar
7 6 11 ar
8 7 8 ar
9 8 9 ar
10 2 9 1
11 9 10 ar
12 10 11 ar
13 12 13 ar
14 12 17 ar
15 13 14 ar
16 3 14 1
17 14 15 ar
18 15 16 ar
19 16 17 ar
@<TRIPOS>SUBSTRUCTURE
1	RES1	1	GROUP	1 ****	RES
