# created with PyMOL 2.5.2
@<TRIPOS>MOLECULE
ER_1GWQ_TargetProtein
17 19 1                 
SMALL
USER_CHARGES
@<TRIPOS>ATOM
1	  S1	4.724	6.791	29.587	S.2	1	RES1	0.000	
2	  O9	10.256	8.288	33.195	O.3	1	RES1	0.000	
3	 O10	1.373	4.028	26.701	O.3	1	RES1	0.000	
4	 C32	6.187	4.674	29.476	C.2	1	RES1	0.000	
5	 C33	6.200	5.958	30.001	C.2	1	RES1	0.000	
6	 C34	7.235	6.603	30.808	C.2	1	RES1	0.000	
7	 C35	8.563	6.117	30.759	C.2	1	RES1	0.000	
8	 C36	9.548	6.696	31.555	C.2	1	RES1	0.000	
9	 C37	9.243	7.768	32.401	C.2	1	RES1	0.000	
10	 C38	7.940	8.236	32.485	C.2	1	RES1	0.000	
11	 C39	6.950	7.651	31.686	C.2	1	RES1	0.000	
12	 C40	4.119	5.432	28.683	C.2	1	RES1	0.000	
13	 C41	2.902	5.373	28.020	C.2	1	RES1	0.000	
14	 C42	2.576	4.202	27.371	C.2	1	RES1	0.000	
15	 C43	3.427	3.078	27.378	C.2	1	RES1	0.000	
16	 C44	4.635	3.161	28.064	C.2	1	RES1	0.000	
17	 C45	5.008	4.367	28.732	C.2	1	RES1	0.000	
@<TRIPOS>BOND
1 1 5 ar
2 1 12 ar
3 3 14 1
4 4 5 ar
5 4 17 ar
6 5 6 1
7 6 7 ar
8 6 11 ar
9 7 8 ar
10 8 9 ar
11 2 9 1
12 9 10 ar
13 10 11 ar
14 12 13 ar
15 12 17 ar
16 13 14 ar
17 14 15 ar
18 15 16 ar
19 16 17 ar
@<TRIPOS>SUBSTRUCTURE
1	RES1	1	GROUP	1 ****	RES
