# created with PyMOL 2.5.2
@<TRIPOS>MOLECULE
ER_1GWQ_TargetProtein
17 19 1                 
SMALL
USER_CHARGES
@<TRIPOS>ATOM
1	  S1	4.722	6.762	29.597	S.2	1	RES1	0.000	
2	 O10	10.282	8.359	33.097	O.3	1	RES1	0.000	
3	 O11	1.379	4.086	26.648	O.3	1	RES1	0.000	
4	 C34	6.172	4.646	29.472	C.2	1	RES1	0.000	
5	 C35	6.179	5.911	30.047	C.2	1	RES1	0.000	
6	 C36	7.216	6.539	30.875	C.2	1	RES1	0.000	
7	 C37	8.546	6.099	30.807	C.2	1	RES1	0.000	
8	 C38	9.564	6.701	31.577	C.2	1	RES1	0.000	
9	 C39	9.254	7.768	32.376	C.2	1	RES1	0.000	
10	 C40	7.953	8.265	32.470	C.2	1	RES1	0.000	
11	 C41	6.946	7.672	31.714	C.2	1	RES1	0.000	
12	 C42	4.100	5.422	28.709	C.2	1	RES1	0.000	
13	 C43	2.904	5.383	28.018	C.2	1	RES1	0.000	
14	 C44	2.591	4.186	27.363	C.2	1	RES1	0.000	
15	 C45	3.432	3.105	27.348	C.2	1	RES1	0.000	
16	 C46	4.647	3.172	28.050	C.2	1	RES1	0.000	
17	 C47	5.002	4.342	28.733	C.2	1	RES1	0.000	
@<TRIPOS>BOND
1 1 5 ar
2 1 12 ar
3 2 9 1
4 3 14 1
5 4 5 ar
6 4 17 ar
7 5 6 1
8 6 7 ar
9 6 11 ar
10 7 8 ar
11 8 9 ar
12 9 10 ar
13 10 11 ar
14 12 13 ar
15 12 17 ar
16 13 14 ar
17 14 15 ar
18 15 16 ar
19 16 17 ar
@<TRIPOS>SUBSTRUCTURE
1	RES1	1	GROUP	1 ****	RES
