# created with PyMOL 2.5.2
@<TRIPOS>MOLECULE
BRD4_6YQN_TargetProtein
24 27 1                 
SMALL
USER_CHARGES
@<TRIPOS>ATOM
1	 CL1	25.727	17.906	-6.988	Cl	1	RES1	0.000	
2	  C1	26.029	15.088	1.278	C.3	1	RES1	0.000	
3	  N1	30.782	16.808	0.006	N.2	1	RES1	0.000	
4	  S1	28.499	16.324	1.349	S.2	1	RES1	0.000	
5	  C2	27.233	15.500	0.529	C.2	1	RES1	0.000	
6	  N2	32.717	17.779	0.539	N.2	1	RES1	0.000	
7	  C3	27.535	15.317	-0.816	C.2	1	RES1	0.000	
8	  N3	32.933	16.966	-0.517	N.2	1	RES1	0.000	
9	  C4	26.612	14.558	-1.734	C.3	1	RES1	0.000	
10	  C5	28.796	15.888	-1.191	C.2	1	RES1	0.000	
11	  C6	29.455	16.365	-0.077	C.2	1	RES1	0.000	
12	  C7	31.435	17.691	0.882	C.2	1	RES1	0.000	
13	  C8	30.791	18.492	1.939	C.3	1	RES1	0.000	
14	  N8	30.597	15.772	-2.878	N.2	1	RES1	0.000	
15	  C9	31.792	16.398	-0.822	C.2	1	RES1	0.000	
16	 C10	31.551	15.313	-1.859	C.3	1	RES1	0.000	
17	 C11	32.826	14.944	-2.609	C.3	1	RES1	0.000	
18	 C40	29.344	16.020	-2.556	C.2	1	RES1	0.000	
19	 C41	28.423	16.471	-3.644	C.2	1	RES1	0.000	
20	 C42	27.308	17.308	-3.360	C.2	1	RES1	0.000	
21	 C43	26.488	17.735	-4.407	C.2	1	RES1	0.000	
22	 C44	26.769	17.367	-5.701	C.2	1	RES1	0.000	
23	 C45	27.846	16.551	-6.015	C.2	1	RES1	0.000	
24	 C46	28.712	16.120	-4.957	C.2	1	RES1	0.000	
@<TRIPOS>BOND
1 1 22 1
2 2 5 1
3 3 11 1
4 3 12 ar
5 3 15 ar
6 4 5 ar
7 4 11 ar
8 5 7 ar
9 6 8 ar
10 6 12 ar
11 7 9 1
12 7 10 ar
13 8 15 ar
14 10 11 ar
15 12 13 1
16 14 16 1
17 15 16 1
18 16 17 1
19 10 18 1
20 14 18 2
21 18 19 1
22 19 20 ar
23 19 24 ar
24 20 21 ar
25 21 22 ar
26 22 23 ar
27 23 24 ar
@<TRIPOS>SUBSTRUCTURE
1	RES1	1	GROUP	1 ****	RES
