# created with PyMOL 2.5.2
@<TRIPOS>MOLECULE
ER_1GWQ_TargetProtein
17 19 1                 
SMALL
USER_CHARGES
@<TRIPOS>ATOM
1	  S1	4.750	6.749	29.614	S.2	1	RES1	0.000	
2	 O11	10.271	8.358	33.104	O.3	1	RES1	0.000	
3	 O12	1.387	4.094	26.690	O.3	1	RES1	0.000	
4	 C36	6.171	4.655	29.473	C.2	1	RES1	0.000	
5	 C37	6.203	5.921	30.038	C.2	1	RES1	0.000	
6	 C38	7.219	6.530	30.863	C.2	1	RES1	0.000	
7	 C39	6.936	7.671	31.681	C.2	1	RES1	0.000	
8	 C40	7.930	8.284	32.436	C.2	1	RES1	0.000	
9	 C41	9.245	7.782	32.397	C.2	1	RES1	0.000	
10	 C42	9.553	6.682	31.589	C.2	1	RES1	0.000	
11	 C43	8.549	6.089	30.825	C.2	1	RES1	0.000	
12	 C44	4.115	5.417	28.710	C.2	1	RES1	0.000	
13	 C45	2.892	5.368	28.049	C.2	1	RES1	0.000	
14	 C46	2.594	4.202	27.363	C.2	1	RES1	0.000	
15	 C47	3.427	3.117	27.339	C.2	1	RES1	0.000	
16	 C48	4.641	3.187	28.029	C.2	1	RES1	0.000	
17	 C49	5.002	4.318	28.704	C.2	1	RES1	0.000	
@<TRIPOS>BOND
1 1 5 ar
2 1 12 ar
3 2 9 1
4 3 14 1
5 4 5 ar
6 4 17 ar
7 5 6 1
8 6 7 ar
9 6 11 ar
10 7 8 ar
11 8 9 ar
12 9 10 ar
13 10 11 ar
14 12 13 ar
15 12 17 ar
16 13 14 ar
17 14 15 ar
18 15 16 ar
19 16 17 ar
@<TRIPOS>SUBSTRUCTURE
1	RES1	1	GROUP	1 ****	RES
