# created with PyMOL 2.5.2
@<TRIPOS>MOLECULE
ER_1GWQ_TargetProtein
17 19 1                 
SMALL
USER_CHARGES
@<TRIPOS>ATOM
1	  S1	4.722	6.768	29.635	S.2	1	RES1	0.000	
2	 O12	10.271	8.313	33.135	O.3	1	RES1	0.000	
3	 O13	1.375	4.077	26.684	O.3	1	RES1	0.000	
4	 C38	6.182	4.664	29.474	C.2	1	RES1	0.000	
5	 C39	6.177	5.953	30.025	C.2	1	RES1	0.000	
6	 C40	7.215	6.552	30.839	C.2	1	RES1	0.000	
7	 C41	6.955	7.682	31.660	C.2	1	RES1	0.000	
8	 C42	7.931	8.266	32.443	C.2	1	RES1	0.000	
9	 C43	9.226	7.758	32.380	C.2	1	RES1	0.000	
10	 C44	9.558	6.686	31.583	C.2	1	RES1	0.000	
11	 C45	8.560	6.091	30.815	C.2	1	RES1	0.000	
12	 C46	4.103	5.434	28.714	C.2	1	RES1	0.000	
13	 C47	2.896	5.350	28.041	C.2	1	RES1	0.000	
14	 C48	2.589	4.187	27.350	C.2	1	RES1	0.000	
15	 C49	3.454	3.105	27.367	C.2	1	RES1	0.000	
16	 C50	4.656	3.177	28.038	C.2	1	RES1	0.000	
17	 C51	5.012	4.361	28.721	C.2	1	RES1	0.000	
@<TRIPOS>BOND
1 1 5 ar
2 1 12 ar
3 2 9 1
4 3 14 1
5 4 5 ar
6 4 17 ar
7 5 6 1
8 6 7 ar
9 6 11 ar
10 7 8 ar
11 8 9 ar
12 9 10 ar
13 10 11 ar
14 12 13 ar
15 12 17 ar
16 13 14 ar
17 14 15 ar
18 15 16 ar
19 16 17 ar
@<TRIPOS>SUBSTRUCTURE
1	RES1	1	GROUP	1 ****	RES
