# created with PyMOL 2.5.2
@<TRIPOS>MOLECULE
ER_1GWQ_TargetProtein
17 19 1                 
SMALL
USER_CHARGES
@<TRIPOS>ATOM
1	  S1	4.734	6.761	29.609	S.2	1	RES1	0.000	
2	 O13	10.205	8.350	33.205	O.3	1	RES1	0.000	
3	 O14	1.362	4.062	26.709	O.3	1	RES1	0.000	
4	 C40	6.181	4.683	29.453	C.2	1	RES1	0.000	
5	 C41	6.189	5.948	30.021	C.2	1	RES1	0.000	
6	 C42	7.230	6.590	30.805	C.2	1	RES1	0.000	
7	 C43	6.977	7.694	31.644	C.2	1	RES1	0.000	
8	 C44	7.967	8.266	32.442	C.2	1	RES1	0.000	
9	 C45	9.260	7.746	32.393	C.2	1	RES1	0.000	
10	 C46	9.561	6.641	31.584	C.2	1	RES1	0.000	
11	 C47	8.552	6.077	30.815	C.2	1	RES1	0.000	
12	 C48	4.094	5.433	28.715	C.2	1	RES1	0.000	
13	 C49	2.892	5.352	28.063	C.2	1	RES1	0.000	
14	 C50	2.572	4.168	27.368	C.2	1	RES1	0.000	
15	 C51	3.433	3.090	27.353	C.2	1	RES1	0.000	
16	 C52	4.660	3.200	28.029	C.2	1	RES1	0.000	
17	 C53	5.018	4.359	28.699	C.2	1	RES1	0.000	
@<TRIPOS>BOND
1 1 5 ar
2 1 12 ar
3 2 9 1
4 3 14 1
5 4 5 ar
6 4 17 ar
7 5 6 1
8 6 7 ar
9 6 11 ar
10 7 8 ar
11 8 9 ar
12 9 10 ar
13 10 11 ar
14 12 13 ar
15 12 17 ar
16 13 14 ar
17 14 15 ar
18 15 16 ar
19 16 17 ar
@<TRIPOS>SUBSTRUCTURE
1	RES1	1	GROUP	1 ****	RES
