# created with PyMOL 2.5.2
@<TRIPOS>MOLECULE
ER_1GWQ_TargetProtein
17 19 1                 
SMALL
USER_CHARGES
@<TRIPOS>ATOM
1	  S1	4.738	6.755	29.611	S.2	1	RES1	0.000	
2	 O14	10.260	8.338	33.146	O.3	1	RES1	0.000	
3	 O15	1.371	4.064	26.685	O.3	1	RES1	0.000	
4	 C42	6.169	4.639	29.479	C.2	1	RES1	0.000	
5	 C43	6.199	5.929	30.039	C.2	1	RES1	0.000	
6	 C44	7.233	6.538	30.867	C.2	1	RES1	0.000	
7	 C45	6.952	7.675	31.669	C.2	1	RES1	0.000	
8	 C46	7.930	8.287	32.436	C.2	1	RES1	0.000	
9	 C47	9.245	7.780	32.372	C.2	1	RES1	0.000	
10	 C48	9.572	6.679	31.578	C.2	1	RES1	0.000	
11	 C49	8.541	6.087	30.823	C.2	1	RES1	0.000	
12	 C50	4.111	5.419	28.708	C.2	1	RES1	0.000	
13	 C51	2.890	5.364	28.034	C.2	1	RES1	0.000	
14	 C52	2.576	4.206	27.376	C.2	1	RES1	0.000	
15	 C53	3.435	3.124	27.343	C.2	1	RES1	0.000	
16	 C54	4.645	3.181	28.022	C.2	1	RES1	0.000	
17	 C55	5.022	4.354	28.715	C.2	1	RES1	0.000	
@<TRIPOS>BOND
1 1 5 ar
2 1 12 ar
3 2 9 1
4 3 14 1
5 4 5 ar
6 4 17 ar
7 5 6 1
8 6 7 ar
9 6 11 ar
10 7 8 ar
11 8 9 ar
12 9 10 ar
13 10 11 ar
14 12 13 ar
15 12 17 ar
16 13 14 ar
17 14 15 ar
18 15 16 ar
19 16 17 ar
@<TRIPOS>SUBSTRUCTURE
1	RES1	1	GROUP	1 ****	RES
