# created with PyMOL 2.5.2
@<TRIPOS>MOLECULE
ER_1GWQ_TargetProtein
17 19 1                 
SMALL
USER_CHARGES
@<TRIPOS>ATOM
1	  S1	4.732	6.745	29.617	S.2	1	RES1	0.000	
2	  O7	10.246	8.360	33.129	O.3	1	RES1	0.000	
3	  O8	1.385	4.062	26.683	O.3	1	RES1	0.000	
4	 C25	6.187	4.643	29.460	C.2	1	RES1	0.000	
5	 C26	6.197	5.910	30.027	C.2	1	RES1	0.000	
6	 C27	7.228	6.524	30.880	C.2	1	RES1	0.000	
7	 C28	8.556	6.072	30.845	C.2	1	RES1	0.000	
8	 C29	9.545	6.678	31.594	C.2	1	RES1	0.000	
9	 C30	9.241	7.792	32.394	C.2	1	RES1	0.000	
10	 C31	7.950	8.286	32.432	C.2	1	RES1	0.000	
11	 C32	6.966	7.676	31.635	C.2	1	RES1	0.000	
12	 C33	4.106	5.418	28.701	C.2	1	RES1	0.000	
13	 C34	2.902	5.373	28.054	C.2	1	RES1	0.000	
14	 C35	2.567	4.215	27.380	C.2	1	RES1	0.000	
15	 C36	3.420	3.120	27.357	C.2	1	RES1	0.000	
16	 C37	4.644	3.203	27.991	C.2	1	RES1	0.000	
17	 C38	5.013	4.343	28.723	C.2	1	RES1	0.000	
@<TRIPOS>BOND
1 1 5 ar
2 1 12 ar
3 4 5 ar
4 4 17 ar
5 5 6 1
6 6 7 ar
7 6 11 ar
8 7 8 ar
9 8 9 ar
10 2 9 1
11 9 10 ar
12 10 11 ar
13 12 13 ar
14 12 17 ar
15 13 14 ar
16 3 14 1
17 14 15 ar
18 15 16 ar
19 16 17 ar
@<TRIPOS>SUBSTRUCTURE
1	RES1	1	GROUP	1 ****	RES
