# created with PyMOL 2.5.2
@<TRIPOS>MOLECULE
ER_1GWQ_TargetProtein
17 19 1                 
SMALL
USER_CHARGES
@<TRIPOS>ATOM
1	  S1	4.730	6.723	29.627	S.2	1	RES1	0.000	
2	  O7	10.234	8.406	33.127	O.3	1	RES1	0.000	
3	  O8	1.364	4.060	26.670	O.3	1	RES1	0.000	
4	 C27	6.156	4.670	29.467	C.2	1	RES1	0.000	
5	 C28	6.195	5.910	30.021	C.2	1	RES1	0.000	
6	 C29	7.239	6.540	30.870	C.2	1	RES1	0.000	
7	 C30	6.974	7.663	31.681	C.2	1	RES1	0.000	
8	 C31	7.965	8.299	32.421	C.2	1	RES1	0.000	
9	 C32	9.249	7.761	32.381	C.2	1	RES1	0.000	
10	 C33	9.560	6.666	31.597	C.2	1	RES1	0.000	
11	 C34	8.552	6.061	30.853	C.2	1	RES1	0.000	
12	 C35	4.121	5.414	28.722	C.2	1	RES1	0.000	
13	 C36	2.881	5.398	28.053	C.2	1	RES1	0.000	
14	 C37	2.585	4.197	27.359	C.2	1	RES1	0.000	
15	 C38	3.427	3.120	27.340	C.2	1	RES1	0.000	
16	 C39	4.638	3.187	28.009	C.2	1	RES1	0.000	
17	 C40	5.015	4.346	28.704	C.2	1	RES1	0.000	
@<TRIPOS>BOND
1 1 5 ar
2 1 12 ar
3 4 5 ar
4 4 17 ar
5 5 6 1
6 6 7 ar
7 6 11 ar
8 7 8 ar
9 8 9 ar
10 2 9 1
11 9 10 ar
12 10 11 ar
13 12 13 ar
14 12 17 ar
15 13 14 ar
16 3 14 1
17 14 15 ar
18 15 16 ar
19 16 17 ar
@<TRIPOS>SUBSTRUCTURE
1	RES1	1	GROUP	1 ****	RES
