# created with PyMOL 2.5.2
@<TRIPOS>MOLECULE
ER_1GWQ_TargetProtein
17 19 1                 
SMALL
USER_CHARGES
@<TRIPOS>ATOM
1	  S1	4.742	6.784	29.569	S.2	1	RES1	0.000	
2	  O7	10.252	8.294	33.168	O.3	1	RES1	0.000	
3	  O8	1.381	4.059	26.683	O.3	1	RES1	0.000	
4	 C28	6.165	4.680	29.486	C.2	1	RES1	0.000	
5	 C29	6.182	5.943	30.008	C.2	1	RES1	0.000	
6	 C30	7.227	6.597	30.804	C.2	1	RES1	0.000	
7	 C31	8.562	6.150	30.771	C.2	1	RES1	0.000	
8	 C32	9.573	6.705	31.545	C.2	1	RES1	0.000	
9	 C33	9.252	7.743	32.409	C.2	1	RES1	0.000	
10	 C34	7.937	8.229	32.503	C.2	1	RES1	0.000	
11	 C35	6.942	7.651	31.679	C.2	1	RES1	0.000	
12	 C36	4.119	5.420	28.696	C.2	1	RES1	0.000	
13	 C37	2.885	5.384	28.016	C.2	1	RES1	0.000	
14	 C38	2.577	4.164	27.381	C.2	1	RES1	0.000	
15	 C39	3.442	3.096	27.386	C.2	1	RES1	0.000	
16	 C40	4.649	3.175	28.082	C.2	1	RES1	0.000	
17	 C41	4.996	4.346	28.721	C.2	1	RES1	0.000	
@<TRIPOS>BOND
1 1 5 ar
2 1 12 ar
3 4 5 ar
4 4 17 ar
5 5 6 1
6 6 7 ar
7 6 11 ar
8 7 8 ar
9 8 9 ar
10 2 9 1
11 9 10 ar
12 10 11 ar
13 12 13 ar
14 12 17 ar
15 13 14 ar
16 3 14 1
17 14 15 ar
18 15 16 ar
19 16 17 ar
@<TRIPOS>SUBSTRUCTURE
1	RES1	1	GROUP	1 ****	RES
