# created with PyMOL 2.5.2
@<TRIPOS>MOLECULE
ER_1GWQ_TargetProtein
17 19 1                 
SMALL
USER_CHARGES
@<TRIPOS>ATOM
1	  S1	4.739	6.749	29.637	S.2	1	RES1	0.000	
2	  O7	10.274	8.352	33.119	O.3	1	RES1	0.000	
3	  O8	1.383	4.087	26.657	O.3	1	RES1	0.000	
4	 C29	6.166	4.634	29.480	C.2	1	RES1	0.000	
5	 C30	6.190	5.905	30.039	C.2	1	RES1	0.000	
6	 C31	7.222	6.528	30.882	C.2	1	RES1	0.000	
7	 C32	6.953	7.674	31.697	C.2	1	RES1	0.000	
8	 C33	7.945	8.288	32.436	C.2	1	RES1	0.000	
9	 C34	9.249	7.780	32.377	C.2	1	RES1	0.000	
10	 C35	9.554	6.706	31.564	C.2	1	RES1	0.000	
11	 C36	8.551	6.095	30.829	C.2	1	RES1	0.000	
12	 C37	4.123	5.425	28.714	C.2	1	RES1	0.000	
13	 C38	2.898	5.370	28.021	C.2	1	RES1	0.000	
14	 C39	2.564	4.201	27.356	C.2	1	RES1	0.000	
15	 C40	3.423	3.105	27.351	C.2	1	RES1	0.000	
16	 C41	4.657	3.176	28.027	C.2	1	RES1	0.000	
17	 C42	4.996	4.347	28.718	C.2	1	RES1	0.000	
@<TRIPOS>BOND
1 1 5 ar
2 1 12 ar
3 4 5 ar
4 4 17 ar
5 5 6 1
6 6 7 ar
7 6 11 ar
8 7 8 ar
9 8 9 ar
10 2 9 1
11 9 10 ar
12 10 11 ar
13 12 13 ar
14 12 17 ar
15 13 14 ar
16 3 14 1
17 14 15 ar
18 15 16 ar
19 16 17 ar
@<TRIPOS>SUBSTRUCTURE
1	RES1	1	GROUP	1 ****	RES
