# created with PyMOL 2.5.2
@<TRIPOS>MOLECULE
ER_1GWQ_TargetProtein
17 19 1                 
SMALL
USER_CHARGES
@<TRIPOS>ATOM
1	  S1	4.734	6.792	29.582	S.2	1	RES1	0.000	
2	  O7	10.249	8.293	33.169	O.3	1	RES1	0.000	
3	  O8	1.388	4.046	26.690	O.3	1	RES1	0.000	
4	 C30	6.172	4.664	29.478	C.2	1	RES1	0.000	
5	 C31	6.190	5.947	30.010	C.2	1	RES1	0.000	
6	 C32	7.231	6.600	30.825	C.2	1	RES1	0.000	
7	 C33	8.541	6.130	30.768	C.2	1	RES1	0.000	
8	 C34	9.537	6.690	31.572	C.2	1	RES1	0.000	
9	 C35	9.257	7.758	32.390	C.2	1	RES1	0.000	
10	 C36	7.953	8.228	32.481	C.2	1	RES1	0.000	
11	 C37	6.955	7.664	31.679	C.2	1	RES1	0.000	
12	 C38	4.107	5.429	28.700	C.2	1	RES1	0.000	
13	 C39	2.902	5.373	28.029	C.2	1	RES1	0.000	
14	 C40	2.575	4.179	27.383	C.2	1	RES1	0.000	
15	 C41	3.429	3.090	27.389	C.2	1	RES1	0.000	
16	 C42	4.664	3.180	28.062	C.2	1	RES1	0.000	
17	 C43	5.003	4.356	28.699	C.2	1	RES1	0.000	
@<TRIPOS>BOND
1 1 5 ar
2 1 12 ar
3 4 5 ar
4 4 17 ar
5 5 6 1
6 6 7 ar
7 6 11 ar
8 7 8 ar
9 8 9 ar
10 2 9 1
11 9 10 ar
12 10 11 ar
13 12 13 ar
14 12 17 ar
15 13 14 ar
16 3 14 1
17 14 15 ar
18 15 16 ar
19 16 17 ar
@<TRIPOS>SUBSTRUCTURE
1	RES1	1	GROUP	1 ****	RES
