# created with PyMOL 2.5.2
@<TRIPOS>MOLECULE
ER_1GWQ_TargetProtein
17 19 1                 
SMALL
USER_CHARGES
@<TRIPOS>ATOM
1	  S1	4.711	6.768	29.609	S.2	1	RES1	0.000	
2	  O7	10.269	8.288	33.170	O.3	1	RES1	0.000	
3	  O8	1.365	4.030	26.712	O.3	1	RES1	0.000	
4	 C31	6.185	4.696	29.450	C.2	1	RES1	0.000	
5	 C32	6.198	5.954	29.987	C.2	1	RES1	0.000	
6	 C33	7.234	6.576	30.817	C.2	1	RES1	0.000	
7	 C34	6.960	7.720	31.639	C.2	1	RES1	0.000	
8	 C35	7.949	8.273	32.430	C.2	1	RES1	0.000	
9	 C36	9.236	7.765	32.403	C.2	1	RES1	0.000	
10	 C37	9.537	6.653	31.627	C.2	1	RES1	0.000	
11	 C38	8.543	6.067	30.816	C.2	1	RES1	0.000	
12	 C39	4.110	5.432	28.715	C.2	1	RES1	0.000	
13	 C40	2.879	5.358	28.066	C.2	1	RES1	0.000	
14	 C41	2.573	4.160	27.390	C.2	1	RES1	0.000	
15	 C42	3.451	3.110	27.339	C.2	1	RES1	0.000	
16	 C43	4.666	3.198	28.010	C.2	1	RES1	0.000	
17	 C44	5.021	4.374	28.721	C.2	1	RES1	0.000	
@<TRIPOS>BOND
1 1 5 ar
2 1 12 ar
3 4 5 ar
4 4 17 ar
5 5 6 1
6 6 7 ar
7 6 11 ar
8 7 8 ar
9 8 9 ar
10 2 9 1
11 9 10 ar
12 10 11 ar
13 12 13 ar
14 12 17 ar
15 13 14 ar
16 3 14 1
17 14 15 ar
18 15 16 ar
19 16 17 ar
@<TRIPOS>SUBSTRUCTURE
1	RES1	1	GROUP	1 ****	RES
