# created with PyMOL 2.5.2
@<TRIPOS>MOLECULE
ER_1GWQ_TargetProtein
17 19 1                 
SMALL
USER_CHARGES
@<TRIPOS>ATOM
1	  S1	4.736	6.774	29.596	S.2	1	RES1	0.000	
2	  O8	10.260	8.293	33.172	O.3	1	RES1	0.000	
3	  O9	1.372	4.034	26.683	O.3	1	RES1	0.000	
4	 C27	6.166	4.673	29.462	C.2	1	RES1	0.000	
5	 C28	6.188	5.966	29.986	C.2	1	RES1	0.000	
6	 C29	7.228	6.610	30.817	C.2	1	RES1	0.000	
7	 C30	8.558	6.121	30.783	C.2	1	RES1	0.000	
8	 C31	9.539	6.670	31.565	C.2	1	RES1	0.000	
9	 C32	9.247	7.741	32.405	C.2	1	RES1	0.000	
10	 C33	7.944	8.255	32.473	C.2	1	RES1	0.000	
11	 C34	6.957	7.673	31.686	C.2	1	RES1	0.000	
12	 C35	4.111	5.447	28.709	C.2	1	RES1	0.000	
13	 C36	2.908	5.358	28.038	C.2	1	RES1	0.000	
14	 C37	2.571	4.178	27.378	C.2	1	RES1	0.000	
15	 C38	3.444	3.094	27.387	C.2	1	RES1	0.000	
16	 C39	4.658	3.168	28.043	C.2	1	RES1	0.000	
17	 C40	5.002	4.365	28.720	C.2	1	RES1	0.000	
@<TRIPOS>BOND
1 1 5 ar
2 1 12 ar
3 4 5 ar
4 4 17 ar
5 5 6 1
6 6 7 ar
7 6 11 ar
8 7 8 ar
9 8 9 ar
10 2 9 1
11 9 10 ar
12 10 11 ar
13 12 13 ar
14 12 17 ar
15 13 14 ar
16 3 14 1
17 14 15 ar
18 15 16 ar
19 16 17 ar
@<TRIPOS>SUBSTRUCTURE
1	RES1	1	GROUP	1 ****	RES
