# created with PyMOL 2.5.2
@<TRIPOS>MOLECULE
ER_1GWQ_TargetProtein
17 19 1                 
SMALL
USER_CHARGES
@<TRIPOS>ATOM
1	  S1	4.732	6.770	29.593	S.2	1	RES1	0.000	
2	  O9	10.275	8.281	33.163	O.3	1	RES1	0.000	
3	 O10	1.373	4.043	26.688	O.3	1	RES1	0.000	
4	 C29	6.182	4.672	29.463	C.2	1	RES1	0.000	
5	 C30	6.196	5.941	29.979	C.2	1	RES1	0.000	
6	 C31	7.234	6.619	30.824	C.2	1	RES1	0.000	
7	 C32	8.548	6.129	30.775	C.2	1	RES1	0.000	
8	 C33	9.560	6.693	31.552	C.2	1	RES1	0.000	
9	 C34	9.246	7.766	32.418	C.2	1	RES1	0.000	
10	 C35	7.933	8.248	32.502	C.2	1	RES1	0.000	
11	 C36	6.958	7.671	31.705	C.2	1	RES1	0.000	
12	 C37	4.117	5.450	28.671	C.2	1	RES1	0.000	
13	 C38	2.898	5.367	28.031	C.2	1	RES1	0.000	
14	 C39	2.584	4.169	27.365	C.2	1	RES1	0.000	
15	 C40	3.429	3.089	27.389	C.2	1	RES1	0.000	
16	 C41	4.629	3.165	28.062	C.2	1	RES1	0.000	
17	 C42	4.994	4.341	28.725	C.2	1	RES1	0.000	
@<TRIPOS>BOND
1 1 5 ar
2 1 12 ar
3 3 14 1
4 4 5 ar
5 4 17 ar
6 5 6 1
7 6 7 ar
8 6 11 ar
9 7 8 ar
10 8 9 ar
11 2 9 1
12 9 10 ar
13 10 11 ar
14 12 13 ar
15 12 17 ar
16 13 14 ar
17 14 15 ar
18 15 16 ar
19 16 17 ar
@<TRIPOS>SUBSTRUCTURE
1	RES1	1	GROUP	1 ****	RES
