# created with PyMOL 2.5.2
@<TRIPOS>MOLECULE
ER_1GWQ_TargetProtein
17 19 1                 
SMALL
USER_CHARGES
@<TRIPOS>ATOM
1	  S1	4.723	6.762	29.607	S.2	1	RES1	0.000	
2	 O10	10.266	8.338	33.128	O.3	1	RES1	0.000	
3	 O11	1.388	4.064	26.693	O.3	1	RES1	0.000	
4	 C31	6.174	4.661	29.456	C.2	1	RES1	0.000	
5	 C32	6.180	5.936	30.022	C.2	1	RES1	0.000	
6	 C33	7.249	6.561	30.863	C.2	1	RES1	0.000	
7	 C34	6.948	7.684	31.685	C.2	1	RES1	0.000	
8	 C35	7.945	8.271	32.433	C.2	1	RES1	0.000	
9	 C36	9.232	7.755	32.371	C.2	1	RES1	0.000	
10	 C37	9.541	6.679	31.589	C.2	1	RES1	0.000	
11	 C38	8.557	6.079	30.840	C.2	1	RES1	0.000	
12	 C39	4.117	5.419	28.710	C.2	1	RES1	0.000	
13	 C40	2.878	5.369	28.038	C.2	1	RES1	0.000	
14	 C41	2.575	4.194	27.371	C.2	1	RES1	0.000	
15	 C42	3.434	3.103	27.342	C.2	1	RES1	0.000	
16	 C43	4.659	3.191	28.024	C.2	1	RES1	0.000	
17	 C44	5.020	4.357	28.730	C.2	1	RES1	0.000	
@<TRIPOS>BOND
1 1 5 ar
2 1 12 ar
3 2 9 1
4 3 14 1
5 4 5 ar
6 4 17 ar
7 5 6 1
8 6 7 ar
9 6 11 ar
10 7 8 ar
11 8 9 ar
12 9 10 ar
13 10 11 ar
14 12 13 ar
15 12 17 ar
16 13 14 ar
17 14 15 ar
18 15 16 ar
19 16 17 ar
@<TRIPOS>SUBSTRUCTURE
1	RES1	1	GROUP	1 ****	RES
