# created with PyMOL 2.5.2
@<TRIPOS>MOLECULE
ER_1GWQ_TargetProtein
17 19 1                 
SMALL
USER_CHARGES
@<TRIPOS>ATOM
1	  S1	4.724	6.772	29.561	S.2	1	RES1	0.000	
2	 O11	10.265	8.284	33.160	O.3	1	RES1	0.000	
3	 O12	1.378	4.053	26.693	O.3	1	RES1	0.000	
4	 C33	6.159	4.675	29.472	C.2	1	RES1	0.000	
5	 C34	6.207	5.951	30.013	C.2	1	RES1	0.000	
6	 C35	7.222	6.590	30.805	C.2	1	RES1	0.000	
7	 C36	8.566	6.125	30.766	C.2	1	RES1	0.000	
8	 C37	9.561	6.692	31.551	C.2	1	RES1	0.000	
9	 C38	9.233	7.761	32.419	C.2	1	RES1	0.000	
10	 C39	7.939	8.242	32.478	C.2	1	RES1	0.000	
11	 C40	6.936	7.658	31.701	C.2	1	RES1	0.000	
12	 C41	4.115	5.437	28.716	C.2	1	RES1	0.000	
13	 C42	2.906	5.366	28.020	C.2	1	RES1	0.000	
14	 C43	2.589	4.171	27.363	C.2	1	RES1	0.000	
15	 C44	3.437	3.098	27.404	C.2	1	RES1	0.000	
16	 C45	4.652	3.180	28.065	C.2	1	RES1	0.000	
17	 C46	4.996	4.366	28.716	C.2	1	RES1	0.000	
@<TRIPOS>BOND
1 1 5 ar
2 1 12 ar
3 2 9 1
4 3 14 1
5 4 5 ar
6 4 17 ar
7 5 6 1
8 6 7 ar
9 6 11 ar
10 7 8 ar
11 8 9 ar
12 9 10 ar
13 10 11 ar
14 12 13 ar
15 12 17 ar
16 13 14 ar
17 14 15 ar
18 15 16 ar
19 16 17 ar
@<TRIPOS>SUBSTRUCTURE
1	RES1	1	GROUP	1 ****	RES
