# created with PyMOL 2.5.2
@<TRIPOS>MOLECULE
ER_1GWQ_TargetProtein
17 19 1                 
SMALL
USER_CHARGES
@<TRIPOS>ATOM
1	  S1	4.730	6.748	29.604	S.2	1	RES1	0.000	
2	 O12	10.222	8.410	33.135	O.3	1	RES1	0.000	
3	 O13	1.383	4.082	26.670	O.3	1	RES1	0.000	
4	 C35	6.173	4.636	29.471	C.2	1	RES1	0.000	
5	 C36	6.199	5.894	30.041	C.2	1	RES1	0.000	
6	 C37	7.223	6.528	30.876	C.2	1	RES1	0.000	
7	 C38	8.548	6.064	30.808	C.2	1	RES1	0.000	
8	 C39	9.568	6.687	31.575	C.2	1	RES1	0.000	
9	 C40	9.257	7.773	32.383	C.2	1	RES1	0.000	
10	 C41	7.966	8.275	32.437	C.2	1	RES1	0.000	
11	 C42	6.968	7.657	31.684	C.2	1	RES1	0.000	
12	 C43	4.111	5.422	28.726	C.2	1	RES1	0.000	
13	 C44	2.880	5.370	28.020	C.2	1	RES1	0.000	
14	 C45	2.580	4.226	27.365	C.2	1	RES1	0.000	
15	 C46	3.430	3.118	27.347	C.2	1	RES1	0.000	
16	 C47	4.640	3.171	28.028	C.2	1	RES1	0.000	
17	 C48	5.008	4.359	28.735	C.2	1	RES1	0.000	
@<TRIPOS>BOND
1 1 5 ar
2 1 12 ar
3 2 9 1
4 3 14 1
5 4 5 ar
6 4 17 ar
7 5 6 1
8 6 7 ar
9 6 11 ar
10 7 8 ar
11 8 9 ar
12 9 10 ar
13 10 11 ar
14 12 13 ar
15 12 17 ar
16 13 14 ar
17 14 15 ar
18 15 16 ar
19 16 17 ar
@<TRIPOS>SUBSTRUCTURE
1	RES1	1	GROUP	1 ****	RES
