# created with PyMOL 2.5.2
@<TRIPOS>MOLECULE
ER_1GWQ_TargetProtein
17 19 1                 
SMALL
USER_CHARGES
@<TRIPOS>ATOM
1	  S1	4.712	6.766	29.598	S.2	1	RES1	0.000	
2	 O13	10.258	8.278	33.169	O.3	1	RES1	0.000	
3	 O14	1.387	4.037	26.709	O.3	1	RES1	0.000	
4	 C37	6.189	4.695	29.452	C.2	1	RES1	0.000	
5	 C38	6.199	5.944	30.010	C.2	1	RES1	0.000	
6	 C39	7.226	6.587	30.819	C.2	1	RES1	0.000	
7	 C40	6.962	7.692	31.641	C.2	1	RES1	0.000	
8	 C41	7.940	8.284	32.434	C.2	1	RES1	0.000	
9	 C42	9.256	7.761	32.404	C.2	1	RES1	0.000	
10	 C43	9.545	6.656	31.613	C.2	1	RES1	0.000	
11	 C44	8.544	6.101	30.813	C.2	1	RES1	0.000	
12	 C45	4.112	5.429	28.724	C.2	1	RES1	0.000	
13	 C46	2.873	5.370	28.067	C.2	1	RES1	0.000	
14	 C47	2.567	4.169	27.364	C.2	1	RES1	0.000	
15	 C48	3.448	3.098	27.361	C.2	1	RES1	0.000	
16	 C49	4.656	3.186	28.021	C.2	1	RES1	0.000	
17	 C50	5.012	4.370	28.703	C.2	1	RES1	0.000	
@<TRIPOS>BOND
1 1 5 ar
2 1 12 ar
3 2 9 1
4 3 14 1
5 4 5 ar
6 4 17 ar
7 5 6 1
8 6 7 ar
9 6 11 ar
10 7 8 ar
11 8 9 ar
12 9 10 ar
13 10 11 ar
14 12 13 ar
15 12 17 ar
16 13 14 ar
17 14 15 ar
18 15 16 ar
19 16 17 ar
@<TRIPOS>SUBSTRUCTURE
1	RES1	1	GROUP	1 ****	RES
