# created with PyMOL 2.5.2
@<TRIPOS>MOLECULE
ER_1GWQ_TargetProtein
17 19 1                 
SMALL
USER_CHARGES
@<TRIPOS>ATOM
1	  S1	4.717	6.749	29.632	S.2	1	RES1	0.000	
2	  O8	10.244	8.301	33.190	O.3	1	RES1	0.000	
3	  O9	1.370	4.040	26.736	O.3	1	RES1	0.000	
4	 C33	6.214	4.698	29.437	C.2	1	RES1	0.000	
5	 C34	6.209	5.947	29.988	C.2	1	RES1	0.000	
6	 C35	7.248	6.618	30.784	C.2	1	RES1	0.000	
7	 C36	6.970	7.733	31.625	C.2	1	RES1	0.000	
8	 C37	7.949	8.307	32.410	C.2	1	RES1	0.000	
9	 C38	9.245	7.733	32.401	C.2	1	RES1	0.000	
10	 C39	9.516	6.630	31.639	C.2	1	RES1	0.000	
11	 C40	8.548	6.055	30.866	C.2	1	RES1	0.000	
12	 C41	4.094	5.422	28.706	C.2	1	RES1	0.000	
13	 C42	2.864	5.338	28.075	C.2	1	RES1	0.000	
14	 C43	2.552	4.172	27.393	C.2	1	RES1	0.000	
15	 C44	3.444	3.115	27.348	C.2	1	RES1	0.000	
16	 C45	4.666	3.200	27.980	C.2	1	RES1	0.000	
17	 C46	5.035	4.365	28.692	C.2	1	RES1	0.000	
@<TRIPOS>BOND
1 1 5 ar
2 1 12 ar
3 4 5 ar
4 4 17 ar
5 5 6 1
6 6 7 ar
7 6 11 ar
8 7 8 ar
9 8 9 ar
10 2 9 1
11 9 10 ar
12 10 11 ar
13 12 13 ar
14 12 17 ar
15 13 14 ar
16 3 14 1
17 14 15 ar
18 15 16 ar
19 16 17 ar
@<TRIPOS>SUBSTRUCTURE
1	RES1	1	GROUP	1 ****	RES
