# created with PyMOL 2.5.2
@<TRIPOS>MOLECULE
ER_1GWQ_TargetProtein
17 19 1                 
SMALL
USER_CHARGES
@<TRIPOS>ATOM
1	  S1	4.737	6.758	29.615	S.2	1	RES1	0.000	
2	  O8	10.282	8.356	33.103	O.3	1	RES1	0.000	
3	  O9	1.396	4.085	26.660	O.3	1	RES1	0.000	
4	 C34	6.159	4.634	29.469	C.2	1	RES1	0.000	
5	 C35	6.194	5.915	30.049	C.2	1	RES1	0.000	
6	 C36	7.214	6.535	30.886	C.2	1	RES1	0.000	
7	 C37	6.955	7.654	31.694	C.2	1	RES1	0.000	
8	 C38	7.953	8.266	32.450	C.2	1	RES1	0.000	
9	 C39	9.234	7.790	32.376	C.2	1	RES1	0.000	
10	 C40	9.557	6.701	31.567	C.2	1	RES1	0.000	
11	 C41	8.534	6.106	30.815	C.2	1	RES1	0.000	
12	 C42	4.106	5.434	28.736	C.2	1	RES1	0.000	
13	 C43	2.904	5.376	28.021	C.2	1	RES1	0.000	
14	 C44	2.574	4.210	27.344	C.2	1	RES1	0.000	
15	 C45	3.441	3.106	27.351	C.2	1	RES1	0.000	
16	 C46	4.642	3.176	28.038	C.2	1	RES1	0.000	
17	 C47	5.005	4.320	28.730	C.2	1	RES1	0.000	
@<TRIPOS>BOND
1 1 5 ar
2 1 12 ar
3 4 5 ar
4 4 17 ar
5 5 6 1
6 6 7 ar
7 6 11 ar
8 7 8 ar
9 8 9 ar
10 2 9 1
11 9 10 ar
12 10 11 ar
13 12 13 ar
14 12 17 ar
15 13 14 ar
16 3 14 1
17 14 15 ar
18 15 16 ar
19 16 17 ar
@<TRIPOS>SUBSTRUCTURE
1	RES1	1	GROUP	1 ****	RES
