# created with PyMOL 2.5.2
@<TRIPOS>MOLECULE
ER_1GWQ_TargetProtein
17 19 1                 
SMALL
USER_CHARGES
@<TRIPOS>ATOM
1	  S1	4.736	6.764	29.613	S.2	1	RES1	0.000	
2	  O8	10.253	8.364	33.105	O.3	1	RES1	0.000	
3	  O9	1.390	4.068	26.671	O.3	1	RES1	0.000	
4	 C35	6.175	4.643	29.486	C.2	1	RES1	0.000	
5	 C36	6.203	5.907	30.048	C.2	1	RES1	0.000	
6	 C37	7.215	6.529	30.871	C.2	1	RES1	0.000	
7	 C38	8.546	6.079	30.833	C.2	1	RES1	0.000	
8	 C39	9.548	6.694	31.570	C.2	1	RES1	0.000	
9	 C40	9.244	7.779	32.372	C.2	1	RES1	0.000	
10	 C41	7.958	8.271	32.443	C.2	1	RES1	0.000	
11	 C42	6.949	7.655	31.683	C.2	1	RES1	0.000	
12	 C43	4.111	5.424	28.710	C.2	1	RES1	0.000	
13	 C44	2.888	5.377	28.041	C.2	1	RES1	0.000	
14	 C45	2.587	4.218	27.349	C.2	1	RES1	0.000	
15	 C46	3.430	3.118	27.354	C.2	1	RES1	0.000	
16	 C47	4.657	3.181	28.031	C.2	1	RES1	0.000	
17	 C48	4.995	4.348	28.720	C.2	1	RES1	0.000	
@<TRIPOS>BOND
1 1 5 ar
2 1 12 ar
3 4 5 ar
4 4 17 ar
5 5 6 1
6 6 7 ar
7 6 11 ar
8 7 8 ar
9 8 9 ar
10 2 9 1
11 9 10 ar
12 10 11 ar
13 12 13 ar
14 12 17 ar
15 13 14 ar
16 3 14 1
17 14 15 ar
18 15 16 ar
19 16 17 ar
@<TRIPOS>SUBSTRUCTURE
1	RES1	1	GROUP	1 ****	RES
