# created with PyMOL 2.5.2
@<TRIPOS>MOLECULE
CRBN_6H0G_TargetProtein
20 22 1                 
SMALL
USER_CHARGES
@<TRIPOS>ATOM
1	  N5	2.001	54.427	-85.623	N.pl3	1	RES1	0.000	
2	  N6	1.712	51.769	-82.123	N.2	1	RES1	0.000	
3	  N7	1.991	50.059	-78.860	N.pl3	1	RES1	0.000	
4	  O9	2.831	53.735	-82.863	O.2	1	RES1	0.000	
5	 O10	3.692	49.713	-77.393	O.2	1	RES1	0.000	
6	 O11	0.211	50.388	-80.209	O.2	1	RES1	0.000	
7	 O12	0.421	49.825	-82.253	O.2	1	RES1	0.000	
8	 C26	1.328	53.204	-85.455	C.2	1	RES1	0.000	
9	 C27	0.511	52.675	-86.465	C.2	1	RES1	0.000	
10	 C28	-0.188	51.477	-86.297	C.2	1	RES1	0.000	
11	 C29	-0.131	50.812	-85.064	C.2	1	RES1	0.000	
12	 C30	0.661	51.371	-84.062	C.2	1	RES1	0.000	
13	 C31	1.367	52.498	-84.241	C.2	1	RES1	0.000	
14	 C32	2.064	52.782	-83.001	C.2	1	RES1	0.000	
15	 C33	2.241	51.640	-80.719	C.3	1	RES1	0.000	
16	 C34	3.699	51.247	-80.674	C.3	1	RES1	0.000	
17	 C35	4.149	51.219	-79.204	C.3	1	RES1	0.000	
18	 C36	3.277	50.252	-78.401	C.2	1	RES1	0.000	
19	 C37	1.392	50.622	-79.955	C.2	1	RES1	0.000	
20	 C38	0.898	50.877	-82.702	C.2	1	RES1	0.000	
@<TRIPOS>BOND
1 5 18 2
2 6 19 2
3 7 20 2
4 1 8 1
5 8 9 ar
6 8 13 ar
7 9 10 ar
8 10 11 ar
9 11 12 ar
10 12 13 ar
11 12 20 ar
12 13 14 ar
13 2 14 ar
14 4 14 2
15 2 15 1
16 15 16 1
17 15 19 1
18 16 17 1
19 17 18 1
20 3 18 1
21 3 19 1
22 2 20 ar
@<TRIPOS>SUBSTRUCTURE
1	RES1	1	GROUP	1 ****	RES
