# created with PyMOL 2.5.2
@<TRIPOS>MOLECULE
BRD4_6YQN_TargetProtein
24 27 1                 
SMALL
USER_CHARGES
@<TRIPOS>ATOM
1	 CL1	25.741	17.884	-6.985	Cl	1	RES1	0.000	
2	  C1	26.027	15.097	1.296	C.3	1	RES1	0.000	
3	  N1	30.792	16.817	0.005	N.2	1	RES1	0.000	
4	  S1	28.512	16.299	1.360	S.2	1	RES1	0.000	
5	  C2	27.238	15.514	0.532	C.2	1	RES1	0.000	
6	  N2	32.697	17.770	0.548	N.2	1	RES1	0.000	
7	  C3	27.528	15.286	-0.822	C.2	1	RES1	0.000	
8	  N3	32.939	16.982	-0.518	N.2	1	RES1	0.000	
9	  C4	26.620	14.576	-1.730	C.3	1	RES1	0.000	
10	  C5	28.796	15.898	-1.206	C.2	1	RES1	0.000	
11	  C6	29.475	16.356	-0.070	C.2	1	RES1	0.000	
12	  C7	31.445	17.701	0.869	C.2	1	RES1	0.000	
13	  C8	30.785	18.466	1.964	C.3	1	RES1	0.000	
14	  N8	30.571	15.761	-2.880	N.2	1	RES1	0.000	
15	  C9	31.769	16.399	-0.823	C.2	1	RES1	0.000	
16	 C10	31.552	15.323	-1.849	C.3	1	RES1	0.000	
17	 C11	32.817	14.968	-2.619	C.3	1	RES1	0.000	
18	 C32	29.339	16.011	-2.551	C.2	1	RES1	0.000	
19	 C33	28.433	16.486	-3.651	C.2	1	RES1	0.000	
20	 C34	27.326	17.319	-3.375	C.2	1	RES1	0.000	
21	 C35	26.502	17.771	-4.411	C.2	1	RES1	0.000	
22	 C36	26.772	17.361	-5.708	C.2	1	RES1	0.000	
23	 C37	27.848	16.538	-6.015	C.2	1	RES1	0.000	
24	 C38	28.679	16.098	-4.970	C.2	1	RES1	0.000	
@<TRIPOS>BOND
1 1 22 1
2 2 5 1
3 3 11 1
4 3 12 ar
5 3 15 ar
6 4 5 ar
7 4 11 ar
8 5 7 ar
9 6 8 ar
10 6 12 ar
11 7 9 1
12 7 10 ar
13 8 15 ar
14 10 11 ar
15 12 13 1
16 14 16 1
17 15 16 1
18 16 17 1
19 10 18 1
20 14 18 2
21 18 19 1
22 19 20 ar
23 19 24 ar
24 20 21 ar
25 21 22 ar
26 22 23 ar
27 23 24 ar
@<TRIPOS>SUBSTRUCTURE
1	RES1	1	GROUP	1 ****	RES
