# created with PyMOL 2.5.2
@<TRIPOS>MOLECULE
CRBN_6H0G_TargetProtein
20 22 1                 
SMALL
USER_CHARGES
@<TRIPOS>ATOM
1	  N5	1.985	54.447	-85.598	N.pl3	1	RES1	0.000	
2	  N6	1.749	51.773	-82.120	N.2	1	RES1	0.000	
3	  N7	1.972	50.071	-78.875	N.pl3	1	RES1	0.000	
4	 O10	2.846	53.726	-82.869	O.2	1	RES1	0.000	
5	 O11	3.656	49.701	-77.407	O.2	1	RES1	0.000	
6	 O12	0.212	50.424	-80.254	O.2	1	RES1	0.000	
7	 O13	0.425	49.843	-82.229	O.2	1	RES1	0.000	
8	 C28	1.321	53.195	-85.449	C.2	1	RES1	0.000	
9	 C29	0.526	52.678	-86.453	C.2	1	RES1	0.000	
10	 C30	-0.216	51.477	-86.275	C.2	1	RES1	0.000	
11	 C31	-0.131	50.799	-85.065	C.2	1	RES1	0.000	
12	 C32	0.646	51.344	-84.062	C.2	1	RES1	0.000	
13	 C33	1.359	52.498	-84.242	C.2	1	RES1	0.000	
14	 C34	2.074	52.785	-83.000	C.2	1	RES1	0.000	
15	 C35	2.251	51.643	-80.759	C.3	1	RES1	0.000	
16	 C36	3.722	51.271	-80.649	C.3	1	RES1	0.000	
17	 C37	4.146	51.207	-79.190	C.3	1	RES1	0.000	
18	 C38	3.297	50.223	-78.389	C.2	1	RES1	0.000	
19	 C39	1.394	50.639	-79.970	C.2	1	RES1	0.000	
20	 C40	0.892	50.852	-82.711	C.2	1	RES1	0.000	
@<TRIPOS>BOND
1 4 14 2
2 5 18 2
3 6 19 2
4 7 20 2
5 1 8 1
6 8 9 ar
7 8 13 ar
8 9 10 ar
9 10 11 ar
10 11 12 ar
11 12 13 ar
12 12 20 ar
13 13 14 ar
14 2 14 ar
15 2 15 1
16 15 16 1
17 15 19 1
18 16 17 1
19 17 18 1
20 3 18 1
21 3 19 1
22 2 20 ar
@<TRIPOS>SUBSTRUCTURE
1	RES1	1	GROUP	1 ****	RES
