# created with PyMOL 2.5.2
@<TRIPOS>MOLECULE
CRBN_6H0G_TargetProtein
20 22 1                 
SMALL
USER_CHARGES
@<TRIPOS>ATOM
1	  N5	2.003	54.421	-85.607	N.pl3	1	RES1	0.000	
2	  N6	1.724	51.803	-82.108	N.2	1	RES1	0.000	
3	  N7	1.991	50.054	-78.889	N.pl3	1	RES1	0.000	
4	 O11	2.835	53.741	-82.859	O.2	1	RES1	0.000	
5	 O12	3.700	49.676	-77.412	O.2	1	RES1	0.000	
6	 O13	0.203	50.397	-80.250	O.2	1	RES1	0.000	
7	 O14	0.411	49.848	-82.242	O.2	1	RES1	0.000	
8	 C30	1.332	53.203	-85.446	C.2	1	RES1	0.000	
9	 C31	0.516	52.655	-86.448	C.2	1	RES1	0.000	
10	 C32	-0.190	51.476	-86.280	C.2	1	RES1	0.000	
11	 C33	-0.125	50.782	-85.070	C.2	1	RES1	0.000	
12	 C34	0.656	51.332	-84.060	C.2	1	RES1	0.000	
13	 C35	1.369	52.509	-84.224	C.2	1	RES1	0.000	
14	 C36	2.039	52.808	-82.991	C.2	1	RES1	0.000	
15	 C37	2.225	51.663	-80.733	C.3	1	RES1	0.000	
16	 C38	3.726	51.285	-80.655	C.3	1	RES1	0.000	
17	 C39	4.138	51.219	-79.180	C.3	1	RES1	0.000	
18	 C40	3.280	50.225	-78.435	C.2	1	RES1	0.000	
19	 C41	1.387	50.638	-79.979	C.2	1	RES1	0.000	
20	 C42	0.905	50.857	-82.697	C.2	1	RES1	0.000	
@<TRIPOS>BOND
1 4 14 2
2 5 18 2
3 6 19 2
4 7 20 2
5 1 8 1
6 8 9 ar
7 8 13 ar
8 9 10 ar
9 10 11 ar
10 11 12 ar
11 12 13 ar
12 12 20 ar
13 13 14 ar
14 2 14 ar
15 2 15 1
16 15 16 1
17 15 19 1
18 16 17 1
19 17 18 1
20 3 18 1
21 3 19 1
22 2 20 ar
@<TRIPOS>SUBSTRUCTURE
1	RES1	1	GROUP	1 ****	RES
