# created with PyMOL 2.5.2
@<TRIPOS>MOLECULE
CRBN_6H0G_TargetProtein
20 22 1                 
SMALL
USER_CHARGES
@<TRIPOS>ATOM
1	  N5	1.971	54.449	-85.591	N.pl3	1	RES1	0.000	
2	  N6	1.733	51.757	-82.115	N.2	1	RES1	0.000	
3	  N7	1.983	50.089	-78.839	N.pl3	1	RES1	0.000	
4	 O12	2.838	53.733	-82.845	O.2	1	RES1	0.000	
5	 O13	3.698	49.709	-77.397	O.2	1	RES1	0.000	
6	 O14	0.199	50.453	-80.166	O.2	1	RES1	0.000	
7	 O15	0.432	49.810	-82.275	O.2	1	RES1	0.000	
8	 C32	1.347	53.203	-85.448	C.2	1	RES1	0.000	
9	 C33	0.516	52.686	-86.457	C.2	1	RES1	0.000	
10	 C34	-0.197	51.486	-86.299	C.2	1	RES1	0.000	
11	 C35	-0.133	50.782	-85.099	C.2	1	RES1	0.000	
12	 C36	0.643	51.339	-84.075	C.2	1	RES1	0.000	
13	 C37	1.353	52.508	-84.242	C.2	1	RES1	0.000	
14	 C38	2.074	52.789	-83.004	C.2	1	RES1	0.000	
15	 C39	2.247	51.624	-80.762	C.3	1	RES1	0.000	
16	 C40	3.710	51.242	-80.662	C.3	1	RES1	0.000	
17	 C41	4.135	51.184	-79.221	C.3	1	RES1	0.000	
18	 C42	3.264	50.245	-78.408	C.2	1	RES1	0.000	
19	 C43	1.395	50.663	-79.947	C.2	1	RES1	0.000	
20	 C44	0.915	50.844	-82.712	C.2	1	RES1	0.000	
@<TRIPOS>BOND
1 4 14 2
2 5 18 2
3 6 19 2
4 7 20 2
5 1 8 1
6 8 9 ar
7 8 13 ar
8 9 10 ar
9 10 11 ar
10 11 12 ar
11 12 13 ar
12 12 20 ar
13 13 14 ar
14 2 14 ar
15 2 15 1
16 15 16 1
17 15 19 1
18 16 17 1
19 17 18 1
20 3 18 1
21 3 19 1
22 2 20 ar
@<TRIPOS>SUBSTRUCTURE
1	RES1	1	GROUP	1 ****	RES
