# created with PyMOL 2.5.2
@<TRIPOS>MOLECULE
CRBN_6H0G_TargetProtein
20 22 1                 
SMALL
USER_CHARGES
@<TRIPOS>ATOM
1	  N5	1.980	54.454	-85.602	N.pl3	1	RES1	0.000	
2	  N6	1.742	51.794	-82.101	N.2	1	RES1	0.000	
3	  N7	1.990	50.053	-78.881	N.pl3	1	RES1	0.000	
4	 O15	2.815	53.746	-82.848	O.2	1	RES1	0.000	
5	 O16	3.681	49.675	-77.424	O.2	1	RES1	0.000	
6	 O17	0.214	50.429	-80.231	O.2	1	RES1	0.000	
7	 O18	0.413	49.830	-82.237	O.2	1	RES1	0.000	
8	 C38	1.339	53.203	-85.454	C.2	1	RES1	0.000	
9	 C39	0.527	52.668	-86.452	C.2	1	RES1	0.000	
10	 C40	-0.197	51.460	-86.275	C.2	1	RES1	0.000	
11	 C41	-0.131	50.778	-85.063	C.2	1	RES1	0.000	
12	 C42	0.668	51.334	-84.064	C.2	1	RES1	0.000	
13	 C43	1.356	52.495	-84.252	C.2	1	RES1	0.000	
14	 C44	2.059	52.817	-83.009	C.2	1	RES1	0.000	
15	 C45	2.246	51.654	-80.731	C.3	1	RES1	0.000	
16	 C46	3.708	51.283	-80.647	C.3	1	RES1	0.000	
17	 C47	4.149	51.193	-79.189	C.3	1	RES1	0.000	
18	 C48	3.282	50.219	-78.414	C.2	1	RES1	0.000	
19	 C49	1.382	50.647	-79.976	C.2	1	RES1	0.000	
20	 C50	0.904	50.863	-82.716	C.2	1	RES1	0.000	
@<TRIPOS>BOND
1 4 14 2
2 5 18 2
3 6 19 2
4 7 20 2
5 1 8 1
6 8 9 ar
7 8 13 ar
8 9 10 ar
9 10 11 ar
10 11 12 ar
11 12 13 ar
12 12 20 ar
13 13 14 ar
14 2 14 ar
15 2 15 1
16 15 16 1
17 15 19 1
18 16 17 1
19 17 18 1
20 3 18 1
21 3 19 1
22 2 20 ar
@<TRIPOS>SUBSTRUCTURE
1	RES1	1	GROUP	1 ****	RES
