# created with PyMOL 2.5.2
@<TRIPOS>MOLECULE
CRBN_6H0G_TargetProtein
20 22 1                 
SMALL
USER_CHARGES
@<TRIPOS>ATOM
1	  N5	1.976	54.457	-85.600	N.pl3	1	RES1	0.000	
2	  N6	1.737	51.750	-82.131	N.2	1	RES1	0.000	
3	  N7	1.980	50.101	-78.831	N.pl3	1	RES1	0.000	
4	  O8	2.848	53.728	-82.844	O.2	1	RES1	0.000	
5	  O9	3.674	49.721	-77.379	O.2	1	RES1	0.000	
6	 O10	0.198	50.481	-80.213	O.2	1	RES1	0.000	
7	 O11	0.436	49.784	-82.279	O.2	1	RES1	0.000	
8	 C28	1.327	53.221	-85.436	C.2	1	RES1	0.000	
9	 C29	0.509	52.712	-86.471	C.2	1	RES1	0.000	
10	 C30	-0.215	51.496	-86.303	C.2	1	RES1	0.000	
11	 C31	-0.149	50.786	-85.083	C.2	1	RES1	0.000	
12	 C32	0.665	51.347	-84.077	C.2	1	RES1	0.000	
13	 C33	1.349	52.493	-84.229	C.2	1	RES1	0.000	
14	 C34	2.090	52.754	-82.999	C.2	1	RES1	0.000	
15	 C35	2.271	51.616	-80.750	C.3	1	RES1	0.000	
16	 C36	3.715	51.215	-80.681	C.3	1	RES1	0.000	
17	 C37	4.154	51.188	-79.222	C.3	1	RES1	0.000	
18	 C38	3.276	50.248	-78.395	C.2	1	RES1	0.000	
19	 C39	1.373	50.666	-79.935	C.2	1	RES1	0.000	
20	 C40	0.912	50.828	-82.708	C.2	1	RES1	0.000	
@<TRIPOS>BOND
1 6 19 2
2 7 20 2
3 1 8 1
4 8 9 ar
5 8 13 ar
6 9 10 ar
7 10 11 ar
8 11 12 ar
9 12 13 ar
10 12 20 ar
11 13 14 ar
12 2 14 ar
13 4 14 2
14 2 15 1
15 15 16 1
16 15 19 1
17 16 17 1
18 17 18 1
19 3 18 1
20 5 18 2
21 3 19 1
22 2 20 ar
@<TRIPOS>SUBSTRUCTURE
1	RES1	1	GROUP	1 ****	RES
