# created with PyMOL 2.5.2
@<TRIPOS>MOLECULE
CRBN_6H0G_TargetProtein
20 22 1                 
SMALL
USER_CHARGES
@<TRIPOS>ATOM
1	  N5	2.110	54.371	-85.610	N.pl3	1	RES1	0.000	
2	  N6	1.737	51.720	-82.137	N.2	1	RES1	0.000	
3	  N7	2.033	50.055	-78.882	N.pl3	1	RES1	0.000	
4	 O10	2.748	53.749	-82.779	O.2	1	RES1	0.000	
5	 O11	3.718	49.732	-77.396	O.2	1	RES1	0.000	
6	 O12	0.242	50.314	-80.240	O.2	1	RES1	0.000	
7	 O13	0.325	49.850	-82.266	O.2	1	RES1	0.000	
8	 C34	1.320	53.220	-85.410	C.2	1	RES1	0.000	
9	 C35	0.563	52.690	-86.464	C.2	1	RES1	0.000	
10	 C36	-0.169	51.514	-86.312	C.2	1	RES1	0.000	
11	 C37	-0.167	50.809	-85.081	C.2	1	RES1	0.000	
12	 C38	0.626	51.326	-84.080	C.2	1	RES1	0.000	
13	 C39	1.337	52.489	-84.244	C.2	1	RES1	0.000	
14	 C40	2.061	52.748	-82.985	C.2	1	RES1	0.000	
15	 C41	2.234	51.639	-80.753	C.3	1	RES1	0.000	
16	 C42	3.708	51.335	-80.641	C.3	1	RES1	0.000	
17	 C43	4.134	51.297	-79.165	C.3	1	RES1	0.000	
18	 C44	3.309	50.294	-78.422	C.2	1	RES1	0.000	
19	 C45	1.409	50.608	-79.971	C.2	1	RES1	0.000	
20	 C46	0.844	50.833	-82.729	C.2	1	RES1	0.000	
@<TRIPOS>BOND
1 4 14 2
2 5 18 2
3 6 19 2
4 7 20 2
5 1 8 1
6 8 9 ar
7 8 13 ar
8 9 10 ar
9 10 11 ar
10 11 12 ar
11 12 13 ar
12 12 20 ar
13 13 14 ar
14 2 14 ar
15 2 15 1
16 15 16 1
17 15 19 1
18 16 17 1
19 17 18 1
20 3 18 1
21 3 19 1
22 2 20 ar
@<TRIPOS>SUBSTRUCTURE
1	RES1	1	GROUP	1 ****	RES
