# created with PyMOL 2.5.2
@<TRIPOS>MOLECULE
CRBN_6H0G_TargetProtein
20 22 1                 
SMALL
USER_CHARGES
@<TRIPOS>ATOM
1	  N5	1.992	54.454	-85.616	N.pl3	1	RES1	0.000	
2	  N6	1.743	51.762	-82.110	N.2	1	RES1	0.000	
3	  N7	1.984	50.074	-78.868	N.pl3	1	RES1	0.000	
4	 O10	2.842	53.733	-82.865	O.2	1	RES1	0.000	
5	 O11	3.667	49.700	-77.383	O.2	1	RES1	0.000	
6	 O12	0.230	50.424	-80.226	O.2	1	RES1	0.000	
7	 O13	0.420	49.845	-82.253	O.2	1	RES1	0.000	
8	 C35	1.330	53.203	-85.476	C.2	1	RES1	0.000	
9	 C36	0.501	52.691	-86.453	C.2	1	RES1	0.000	
10	 C37	-0.205	51.484	-86.281	C.2	1	RES1	0.000	
11	 C38	-0.140	50.793	-85.068	C.2	1	RES1	0.000	
12	 C39	0.659	51.340	-84.068	C.2	1	RES1	0.000	
13	 C40	1.364	52.483	-84.216	C.2	1	RES1	0.000	
14	 C41	2.068	52.784	-83.005	C.2	1	RES1	0.000	
15	 C42	2.248	51.633	-80.736	C.3	1	RES1	0.000	
16	 C43	3.732	51.264	-80.660	C.3	1	RES1	0.000	
17	 C44	4.144	51.208	-79.195	C.3	1	RES1	0.000	
18	 C45	3.268	50.232	-78.410	C.2	1	RES1	0.000	
19	 C46	1.381	50.637	-79.967	C.2	1	RES1	0.000	
20	 C47	0.898	50.847	-82.711	C.2	1	RES1	0.000	
@<TRIPOS>BOND
1 4 14 2
2 5 18 2
3 6 19 2
4 7 20 2
5 1 8 1
6 8 9 ar
7 8 13 ar
8 9 10 ar
9 10 11 ar
10 11 12 ar
11 12 13 ar
12 12 20 ar
13 13 14 ar
14 2 14 ar
15 2 15 1
16 15 16 1
17 15 19 1
18 16 17 1
19 17 18 1
20 3 18 1
21 3 19 1
22 2 20 ar
@<TRIPOS>SUBSTRUCTURE
1	RES1	1	GROUP	1 ****	RES
