# created with PyMOL 2.5.2
@<TRIPOS>MOLECULE
CRBN_6H0G_TargetProtein
20 22 1                 
SMALL
USER_CHARGES
@<TRIPOS>ATOM
1	  N5	1.990	54.436	-85.605	N.pl3	1	RES1	0.000	
2	  N6	1.710	51.751	-82.150	N.2	1	RES1	0.000	
3	  N7	2.012	50.066	-78.865	N.pl3	1	RES1	0.000	
4	 O12	2.823	53.732	-82.856	O.2	1	RES1	0.000	
5	 O13	3.701	49.736	-77.376	O.2	1	RES1	0.000	
6	 O14	0.216	50.401	-80.212	O.2	1	RES1	0.000	
7	 O15	0.385	49.833	-82.258	O.2	1	RES1	0.000	
8	 C39	1.342	53.207	-85.443	C.2	1	RES1	0.000	
9	 C40	0.532	52.708	-86.468	C.2	1	RES1	0.000	
10	 C41	-0.182	51.487	-86.285	C.2	1	RES1	0.000	
11	 C42	-0.139	50.784	-85.074	C.2	1	RES1	0.000	
12	 C43	0.644	51.345	-84.061	C.2	1	RES1	0.000	
13	 C44	1.367	52.495	-84.250	C.2	1	RES1	0.000	
14	 C45	2.061	52.796	-83.003	C.2	1	RES1	0.000	
15	 C46	2.238	51.620	-80.747	C.3	1	RES1	0.000	
16	 C47	3.723	51.251	-80.650	C.3	1	RES1	0.000	
17	 C48	4.134	51.219	-79.185	C.3	1	RES1	0.000	
18	 C49	3.297	50.252	-78.407	C.2	1	RES1	0.000	
19	 C50	1.377	50.630	-79.940	C.2	1	RES1	0.000	
20	 C51	0.894	50.843	-82.731	C.2	1	RES1	0.000	
@<TRIPOS>BOND
1 4 14 2
2 5 18 2
3 6 19 2
4 7 20 2
5 1 8 1
6 8 9 ar
7 8 13 ar
8 9 10 ar
9 10 11 ar
10 11 12 ar
11 12 13 ar
12 12 20 ar
13 13 14 ar
14 2 14 ar
15 2 15 1
16 15 16 1
17 15 19 1
18 16 17 1
19 17 18 1
20 3 18 1
21 3 19 1
22 2 20 ar
@<TRIPOS>SUBSTRUCTURE
1	RES1	1	GROUP	1 ****	RES
