# created with PyMOL 2.5.2
@<TRIPOS>MOLECULE
CRBN_6H0G_TargetProtein
20 22 1                 
SMALL
USER_CHARGES
@<TRIPOS>ATOM
1	  N5	1.973	54.459	-85.626	N.pl3	1	RES1	0.000	
2	  N6	1.720	51.814	-82.110	N.2	1	RES1	0.000	
3	  N7	2.008	50.035	-78.875	N.pl3	1	RES1	0.000	
4	  O7	2.799	53.788	-82.835	O.2	1	RES1	0.000	
5	  O8	3.696	49.651	-77.443	O.2	1	RES1	0.000	
6	  O9	0.193	50.412	-80.236	O.2	1	RES1	0.000	
7	 O10	0.432	49.835	-82.198	O.2	1	RES1	0.000	
8	 C32	1.323	53.205	-85.456	C.2	1	RES1	0.000	
9	 C33	0.537	52.643	-86.464	C.2	1	RES1	0.000	
10	 C34	-0.154	51.451	-86.291	C.2	1	RES1	0.000	
11	 C35	-0.117	50.782	-85.056	C.2	1	RES1	0.000	
12	 C36	0.667	51.334	-84.068	C.2	1	RES1	0.000	
13	 C37	1.348	52.507	-84.239	C.2	1	RES1	0.000	
14	 C38	2.050	52.808	-83.007	C.2	1	RES1	0.000	
15	 C39	2.219	51.673	-80.725	C.3	1	RES1	0.000	
16	 C40	3.718	51.269	-80.655	C.3	1	RES1	0.000	
17	 C41	4.137	51.188	-79.198	C.3	1	RES1	0.000	
18	 C42	3.285	50.204	-78.433	C.2	1	RES1	0.000	
19	 C43	1.390	50.649	-79.965	C.2	1	RES1	0.000	
20	 C44	0.901	50.884	-82.683	C.2	1	RES1	0.000	
@<TRIPOS>BOND
1 7 20 2
2 1 8 1
3 8 9 ar
4 8 13 ar
5 9 10 ar
6 10 11 ar
7 11 12 ar
8 12 13 ar
9 12 20 ar
10 13 14 ar
11 2 14 ar
12 4 14 2
13 2 15 1
14 15 16 1
15 15 19 1
16 16 17 1
17 17 18 1
18 3 18 1
19 5 18 2
20 3 19 1
21 6 19 2
22 2 20 ar
@<TRIPOS>SUBSTRUCTURE
1	RES1	1	GROUP	1 ****	RES
