# created with PyMOL 2.5.2
@<TRIPOS>MOLECULE
CRBN_6H0G_TargetProtein
20 22 1                 
SMALL
USER_CHARGES
@<TRIPOS>ATOM
1	  N5	2.141	54.351	-85.600	N.pl3	1	RES1	0.000	
2	  N6	1.721	51.687	-82.132	N.2	1	RES1	0.000	
3	  N7	2.061	50.035	-78.884	N.pl3	1	RES1	0.000	
4	  O9	2.758	53.717	-82.776	O.2	1	RES1	0.000	
5	 O10	3.750	49.795	-77.374	O.2	1	RES1	0.000	
6	 O11	0.262	50.274	-80.239	O.2	1	RES1	0.000	
7	 O12	0.280	49.814	-82.292	O.2	1	RES1	0.000	
8	 C33	1.324	53.231	-85.424	C.2	1	RES1	0.000	
9	 C34	0.587	52.703	-86.467	C.2	1	RES1	0.000	
10	 C35	-0.183	51.525	-86.312	C.2	1	RES1	0.000	
11	 C36	-0.171	50.829	-85.115	C.2	1	RES1	0.000	
12	 C37	0.610	51.339	-84.069	C.2	1	RES1	0.000	
13	 C38	1.355	52.487	-84.239	C.2	1	RES1	0.000	
14	 C39	2.052	52.755	-82.983	C.2	1	RES1	0.000	
15	 C40	2.187	51.625	-80.754	C.3	1	RES1	0.000	
16	 C41	3.707	51.356	-80.639	C.3	1	RES1	0.000	
17	 C42	4.109	51.343	-79.172	C.3	1	RES1	0.000	
18	 C43	3.310	50.309	-78.398	C.2	1	RES1	0.000	
19	 C44	1.429	50.576	-79.964	C.2	1	RES1	0.000	
20	 C45	0.838	50.841	-82.734	C.2	1	RES1	0.000	
@<TRIPOS>BOND
1 5 18 2
2 6 19 2
3 7 20 2
4 1 8 1
5 8 9 ar
6 8 13 ar
7 9 10 ar
8 10 11 ar
9 11 12 ar
10 12 13 ar
11 12 20 ar
12 13 14 ar
13 2 14 ar
14 4 14 2
15 2 15 1
16 15 16 1
17 15 19 1
18 16 17 1
19 17 18 1
20 3 18 1
21 3 19 1
22 2 20 ar
@<TRIPOS>SUBSTRUCTURE
1	RES1	1	GROUP	1 ****	RES
