# created with PyMOL 2.5.2
@<TRIPOS>MOLECULE
BRD4_6YQN_TargetProtein
24 27 1                 
SMALL
USER_CHARGES
@<TRIPOS>ATOM
1	 CL1	25.718	17.894	-7.006	Cl	1	RES1	0.000	
2	  C1	26.016	15.082	1.281	C.3	1	RES1	0.000	
3	  N1	30.786	16.811	0.007	N.2	1	RES1	0.000	
4	  S1	28.502	16.310	1.356	S.2	1	RES1	0.000	
5	  C2	27.229	15.499	0.521	C.2	1	RES1	0.000	
6	  N2	32.722	17.786	0.547	N.2	1	RES1	0.000	
7	  C3	27.525	15.299	-0.819	C.2	1	RES1	0.000	
8	  N3	32.927	16.949	-0.533	N.2	1	RES1	0.000	
9	  C4	26.619	14.571	-1.718	C.3	1	RES1	0.000	
10	  C5	28.809	15.910	-1.209	C.2	1	RES1	0.000	
11	  C6	29.474	16.366	-0.063	C.2	1	RES1	0.000	
12	  C7	31.425	17.678	0.900	C.2	1	RES1	0.000	
13	  C8	30.805	18.502	1.956	C.3	1	RES1	0.000	
14	  N8	30.575	15.787	-2.880	N.2	1	RES1	0.000	
15	  C9	31.789	16.391	-0.829	C.2	1	RES1	0.000	
16	 C10	31.537	15.329	-1.857	C.3	1	RES1	0.000	
17	 C11	32.853	14.959	-2.607	C.3	1	RES1	0.000	
18	 C32	29.321	16.012	-2.550	C.2	1	RES1	0.000	
19	 C33	28.435	16.464	-3.650	C.2	1	RES1	0.000	
20	 C34	27.332	17.321	-3.366	C.2	1	RES1	0.000	
21	 C35	26.498	17.745	-4.405	C.2	1	RES1	0.000	
22	 C36	26.764	17.378	-5.726	C.2	1	RES1	0.000	
23	 C37	27.844	16.541	-5.989	C.2	1	RES1	0.000	
24	 C38	28.695	16.098	-4.967	C.2	1	RES1	0.000	
@<TRIPOS>BOND
1 1 22 1
2 2 5 1
3 3 11 1
4 3 12 ar
5 3 15 ar
6 4 5 ar
7 4 11 ar
8 5 7 ar
9 6 8 ar
10 6 12 ar
11 7 9 1
12 7 10 ar
13 8 15 ar
14 10 11 ar
15 12 13 1
16 14 16 1
17 15 16 1
18 16 17 1
19 10 18 1
20 14 18 2
21 18 19 1
22 19 20 ar
23 19 24 ar
24 20 21 ar
25 21 22 ar
26 22 23 ar
27 23 24 ar
@<TRIPOS>SUBSTRUCTURE
1	RES1	1	GROUP	1 ****	RES
