# created with PyMOL 2.5.2
@<TRIPOS>MOLECULE
CRBN_6H0G_TargetProtein
20 22 1                 
SMALL
USER_CHARGES
@<TRIPOS>ATOM
1	  N5	1.984	54.449	-85.581	N.pl3	1	RES1	0.000	
2	  N6	1.722	51.781	-82.116	N.2	1	RES1	0.000	
3	  N7	1.998	50.079	-78.859	N.pl3	1	RES1	0.000	
4	 O11	2.794	53.742	-82.832	O.2	1	RES1	0.000	
5	 O12	3.687	49.698	-77.398	O.2	1	RES1	0.000	
6	 O13	0.208	50.448	-80.189	O.2	1	RES1	0.000	
7	 O14	0.425	49.814	-82.254	O.2	1	RES1	0.000	
8	 C37	1.332	53.195	-85.436	C.2	1	RES1	0.000	
9	 C38	0.525	52.700	-86.470	C.2	1	RES1	0.000	
10	 C39	-0.182	51.471	-86.307	C.2	1	RES1	0.000	
11	 C40	-0.120	50.778	-85.093	C.2	1	RES1	0.000	
12	 C41	0.650	51.327	-84.075	C.2	1	RES1	0.000	
13	 C42	1.373	52.498	-84.230	C.2	1	RES1	0.000	
14	 C43	2.065	52.793	-82.987	C.2	1	RES1	0.000	
15	 C44	2.241	51.637	-80.734	C.3	1	RES1	0.000	
16	 C45	3.698	51.245	-80.677	C.3	1	RES1	0.000	
17	 C46	4.142	51.184	-79.218	C.3	1	RES1	0.000	
18	 C47	3.312	50.254	-78.426	C.2	1	RES1	0.000	
19	 C48	1.380	50.656	-79.951	C.2	1	RES1	0.000	
20	 C49	0.892	50.843	-82.730	C.2	1	RES1	0.000	
@<TRIPOS>BOND
1 4 14 2
2 5 18 2
3 6 19 2
4 7 20 2
5 1 8 1
6 8 9 ar
7 8 13 ar
8 9 10 ar
9 10 11 ar
10 11 12 ar
11 12 13 ar
12 12 20 ar
13 13 14 ar
14 2 14 ar
15 2 15 1
16 15 16 1
17 15 19 1
18 16 17 1
19 17 18 1
20 3 18 1
21 3 19 1
22 2 20 ar
@<TRIPOS>SUBSTRUCTURE
1	RES1	1	GROUP	1 ****	RES
