# created with PyMOL 2.5.2
@<TRIPOS>MOLECULE
CRBN_6H0G_TargetProtein
20 22 1                 
SMALL
USER_CHARGES
@<TRIPOS>ATOM
1	  N5	1.981	54.428	-85.609	N.pl3	1	RES1	0.000	
2	  N6	1.706	51.789	-82.101	N.2	1	RES1	0.000	
3	  O6	2.793	53.761	-82.828	O.2	1	RES1	0.000	
4	  N7	2.006	50.054	-78.858	N.pl3	1	RES1	0.000	
5	  O7	3.713	49.686	-77.419	O.2	1	RES1	0.000	
6	  O8	0.206	50.416	-80.205	O.2	1	RES1	0.000	
7	  O9	0.417	49.833	-82.239	O.2	1	RES1	0.000	
8	 C30	1.332	53.215	-85.455	C.2	1	RES1	0.000	
9	 C31	0.547	52.672	-86.474	C.2	1	RES1	0.000	
10	 C32	-0.171	51.466	-86.278	C.2	1	RES1	0.000	
11	 C33	-0.100	50.786	-85.095	C.2	1	RES1	0.000	
12	 C34	0.657	51.336	-84.077	C.2	1	RES1	0.000	
13	 C35	1.363	52.500	-84.236	C.2	1	RES1	0.000	
14	 C36	2.046	52.806	-82.983	C.2	1	RES1	0.000	
15	 C37	2.216	51.645	-80.717	C.3	1	RES1	0.000	
16	 C38	3.685	51.256	-80.670	C.3	1	RES1	0.000	
17	 C39	4.136	51.197	-79.223	C.3	1	RES1	0.000	
18	 C40	3.298	50.259	-78.435	C.2	1	RES1	0.000	
19	 C41	1.396	50.624	-79.966	C.2	1	RES1	0.000	
20	 C42	0.895	50.866	-82.698	C.2	1	RES1	0.000	
@<TRIPOS>BOND
1 1 8 1
2 8 9 ar
3 8 13 ar
4 9 10 ar
5 10 11 ar
6 11 12 ar
7 12 13 ar
8 12 20 ar
9 13 14 ar
10 2 14 ar
11 3 14 2
12 2 15 1
13 15 16 1
14 15 19 1
15 16 17 1
16 17 18 1
17 4 18 1
18 5 18 2
19 4 19 1
20 6 19 2
21 2 20 ar
22 7 20 2
@<TRIPOS>SUBSTRUCTURE
1	RES1	1	GROUP	1 ****	RES
