# created with PyMOL 2.5.2
@<TRIPOS>MOLECULE
VHL_5NVV_TargetProtein
34 36 1                 
SMALL
USER_CHARGES
@<TRIPOS>ATOM
1	  C1	12.718	49.942	80.697	C.3	1	RES1	0.000	
2	  N1	11.548	53.176	87.903	N.pl3	1	RES1	0.000	
3	  O1	12.727	51.921	89.388	O.2	1	RES1	0.000	
4	  C2	13.992	50.525	81.143	C.2	1	RES1	0.000	
5	  N2	13.122	54.134	91.040	N.pl3	1	RES1	0.000	
6	  O2	14.478	56.755	90.447	O.3	1	RES1	0.000	
7	  S2	15.878	51.727	82.364	S.2	1	RES1	0.000	
8	  C3	14.246	51.162	82.373	C.2	1	RES1	0.000	
9	  N3	11.381	54.445	94.172	N.pl3	1	RES1	0.000	
10	  O3	10.961	53.646	91.602	O.2	1	RES1	0.000	
11	  C4	13.418	51.387	83.546	C.2	1	RES1	0.000	
12	  O4	12.525	56.373	94.757	O.2	1	RES1	0.000	
13	  C5	12.568	50.377	84.079	C.2	1	RES1	0.000	
14	  O5	10.375	57.424	96.124	O.3	1	RES1	0.000	
15	  C6	11.805	50.598	85.190	C.2	1	RES1	0.000	
16	  C7	11.867	51.810	85.902	C.2	1	RES1	0.000	
17	  C8	11.017	52.065	87.115	C.3	1	RES1	0.000	
18	  N8	15.048	50.496	80.279	N.2	1	RES1	0.000	
19	  C9	12.404	53.028	88.960	C.2	1	RES1	0.000	
20	 C10	12.851	54.301	89.633	C.3	1	RES1	0.000	
21	 C11	14.119	54.855	89.013	C.3	1	RES1	0.000	
22	 C12	14.912	55.417	90.205	C.3	1	RES1	0.000	
23	 C13	14.483	54.502	91.336	C.3	1	RES1	0.000	
24	 C14	12.109	53.853	91.968	C.2	1	RES1	0.000	
25	 C15	12.479	53.771	93.452	C.3	1	RES1	0.000	
26	 C16	11.519	55.706	94.769	C.2	1	RES1	0.000	
27	 C17	10.245	56.176	95.452	C.3	1	RES1	0.000	
28	 C48	12.731	52.315	93.960	C.3	1	RES1	0.000	
29	 C49	11.458	51.467	93.944	C.3	1	RES1	0.000	
30	 C50	13.247	52.374	95.421	C.3	1	RES1	0.000	
31	 C51	13.813	51.656	93.121	C.3	1	RES1	0.000	
32	 C52	12.722	52.801	85.397	C.2	1	RES1	0.000	
33	 C53	13.478	52.590	84.273	C.2	1	RES1	0.000	
34	 C54	16.108	51.080	80.790	C.2	1	RES1	0.000	
@<TRIPOS>BOND
1 1 4 1
2 2 17 1
3 2 19 1
4 3 19 2
5 4 8 ar
6 4 18 ar
7 7 8 ar
8 7 34 ar
9 8 11 1
10 11 13 ar
11 11 33 ar
12 13 15 ar
13 15 16 ar
14 16 17 1
15 5 20 1
16 19 20 1
17 20 21 1
18 21 22 1
19 6 22 1
20 22 23 1
21 5 23 1
22 5 24 1
23 10 24 2
24 24 25 1
25 9 25 1
26 25 28 1
27 9 26 1
28 12 26 2
29 26 27 1
30 14 27 1
31 28 29 1
32 28 30 1
33 28 31 1
34 16 32 ar
35 32 33 ar
36 18 34 ar
@<TRIPOS>SUBSTRUCTURE
1	RES1	1	GROUP	1 ****	RES
