# created with PyMOL 2.5.2
@<TRIPOS>MOLECULE
VHL_5NVV_TargetProtein
34 36 1                 
SMALL
USER_CHARGES
@<TRIPOS>ATOM
1	  C1	12.824	50.073	80.670	C.3	1	RES1	0.000	
2	  N1	11.412	53.003	87.857	N.pl3	1	RES1	0.000	
3	  O1	12.764	51.747	89.184	O.2	1	RES1	0.000	
4	  C2	14.115	50.685	81.155	C.2	1	RES1	0.000	
5	  N2	13.029	54.018	91.051	N.pl3	1	RES1	0.000	
6	  O2	14.302	56.668	90.286	O.3	1	RES1	0.000	
7	  S2	15.997	51.762	82.455	S.2	1	RES1	0.000	
8	  C3	14.334	51.219	82.391	C.2	1	RES1	0.000	
9	  N3	11.464	54.547	94.260	N.pl3	1	RES1	0.000	
10	  O3	10.873	53.690	91.700	O.2	1	RES1	0.000	
11	  C4	13.487	51.363	83.572	C.2	1	RES1	0.000	
12	  O4	12.712	56.429	94.740	O.2	1	RES1	0.000	
13	  C5	12.597	50.342	84.023	C.2	1	RES1	0.000	
14	  O5	10.666	57.630	96.105	O.3	1	RES1	0.000	
15	  C6	11.793	50.512	85.111	C.2	1	RES1	0.000	
16	  C7	11.777	51.711	85.846	C.2	1	RES1	0.000	
17	  C8	10.929	51.899	87.050	C.3	1	RES1	0.000	
18	  N8	15.133	50.750	80.276	N.2	1	RES1	0.000	
19	  C9	12.294	52.839	88.911	C.2	1	RES1	0.000	
20	 C10	12.728	54.139	89.621	C.3	1	RES1	0.000	
21	 C11	13.995	54.685	88.949	C.3	1	RES1	0.000	
22	 C12	14.760	55.317	90.082	C.3	1	RES1	0.000	
23	 C13	14.406	54.438	91.302	C.3	1	RES1	0.000	
24	 C14	12.053	53.841	92.020	C.2	1	RES1	0.000	
25	 C15	12.498	53.815	93.522	C.3	1	RES1	0.000	
26	 C16	11.634	55.819	94.797	C.2	1	RES1	0.000	
27	 C17	10.430	56.347	95.506	C.3	1	RES1	0.000	
28	 C50	12.706	52.356	94.063	C.3	1	RES1	0.000	
29	 C51	11.403	51.538	94.085	C.3	1	RES1	0.000	
30	 C52	13.236	52.428	95.491	C.3	1	RES1	0.000	
31	 C53	13.740	51.627	93.223	C.3	1	RES1	0.000	
32	 C54	12.628	52.754	85.389	C.2	1	RES1	0.000	
33	 C55	13.440	52.594	84.277	C.2	1	RES1	0.000	
34	 C56	16.193	51.277	80.850	C.2	1	RES1	0.000	
@<TRIPOS>BOND
1 1 4 1
2 2 17 1
3 2 19 1
4 3 19 2
5 4 8 ar
6 4 18 ar
7 7 8 ar
8 7 34 ar
9 8 11 1
10 11 13 ar
11 11 33 ar
12 13 15 ar
13 15 16 ar
14 16 17 1
15 5 20 1
16 19 20 1
17 20 21 1
18 21 22 1
19 6 22 1
20 22 23 1
21 5 23 1
22 5 24 1
23 10 24 2
24 24 25 1
25 9 25 1
26 25 28 1
27 9 26 1
28 12 26 2
29 26 27 1
30 14 27 1
31 28 29 1
32 28 30 1
33 28 31 1
34 16 32 ar
35 32 33 ar
36 18 34 ar
@<TRIPOS>SUBSTRUCTURE
1	RES1	1	GROUP	1 ****	RES
