# created with PyMOL 2.5.2
@<TRIPOS>MOLECULE
VHL_5NVV_TargetProtein
34 36 1                 
SMALL
USER_CHARGES
@<TRIPOS>ATOM
1	  C1	12.592	49.935	80.787	C.3	1	RES1	0.000	
2	  N1	11.550	53.239	87.875	N.pl3	1	RES1	0.000	
3	  O1	12.826	51.973	89.299	O.2	1	RES1	0.000	
4	  C2	13.883	50.491	81.160	C.2	1	RES1	0.000	
5	  N2	13.085	54.179	91.068	N.pl3	1	RES1	0.000	
6	  O2	14.418	56.857	90.407	O.3	1	RES1	0.000	
7	  S2	15.910	51.622	82.256	S.2	1	RES1	0.000	
8	  C3	14.246	51.108	82.352	C.2	1	RES1	0.000	
9	  N3	11.429	54.407	94.222	N.pl3	1	RES1	0.000	
10	  O3	10.970	53.591	91.636	O.2	1	RES1	0.000	
11	  C4	13.467	51.345	83.556	C.2	1	RES1	0.000	
12	  O4	12.612	56.328	94.785	O.2	1	RES1	0.000	
13	  C5	13.550	52.594	84.245	C.2	1	RES1	0.000	
14	  O5	10.481	57.427	96.161	O.3	1	RES1	0.000	
15	  C6	12.832	52.822	85.386	C.2	1	RES1	0.000	
16	  C7	11.921	51.851	85.896	C.2	1	RES1	0.000	
17	  C8	11.070	52.146	87.087	C.3	1	RES1	0.000	
18	  N8	14.891	50.415	80.222	N.2	1	RES1	0.000	
19	  C9	12.380	53.060	88.954	C.2	1	RES1	0.000	
20	 C10	12.786	54.365	89.667	C.3	1	RES1	0.000	
21	 C11	14.061	54.929	89.005	C.3	1	RES1	0.000	
22	 C12	14.844	55.499	90.186	C.3	1	RES1	0.000	
23	 C13	14.467	54.588	91.365	C.3	1	RES1	0.000	
24	 C14	12.100	53.858	92.014	C.2	1	RES1	0.000	
25	 C15	12.510	53.750	93.493	C.3	1	RES1	0.000	
26	 C16	11.567	55.679	94.820	C.2	1	RES1	0.000	
27	 C17	10.313	56.164	95.507	C.3	1	RES1	0.000	
28	 C52	12.751	52.308	93.969	C.3	1	RES1	0.000	
29	 C53	11.395	51.532	94.030	C.3	1	RES1	0.000	
30	 C54	13.348	52.294	95.406	C.3	1	RES1	0.000	
31	 C55	13.681	51.516	93.075	C.3	1	RES1	0.000	
32	 C56	11.810	50.651	85.207	C.2	1	RES1	0.000	
33	 C57	12.582	50.414	84.058	C.2	1	RES1	0.000	
34	 C58	16.027	50.937	80.686	C.2	1	RES1	0.000	
@<TRIPOS>BOND
1 1 4 1
2 2 17 1
3 2 19 1
4 3 19 2
5 4 8 ar
6 4 18 ar
7 7 8 ar
8 7 34 ar
9 8 11 1
10 11 13 ar
11 11 33 ar
12 13 15 ar
13 15 16 ar
14 16 17 1
15 5 20 1
16 19 20 1
17 20 21 1
18 21 22 1
19 6 22 1
20 22 23 1
21 5 23 1
22 5 24 1
23 10 24 2
24 24 25 1
25 9 25 1
26 25 28 1
27 9 26 1
28 12 26 2
29 26 27 1
30 14 27 1
31 28 29 1
32 28 30 1
33 28 31 1
34 16 32 ar
35 32 33 ar
36 18 34 ar
@<TRIPOS>SUBSTRUCTURE
1	RES1	1	GROUP	1 ****	RES
