# created with PyMOL 2.5.2
@<TRIPOS>MOLECULE
VHL_4W9H_TargetProtein
33 35 1                 
SMALL
USER_CHARGES
@<TRIPOS>ATOM
1	  C1	10.100	56.330	95.238	C.3	1	RES1	0.000	
2	  N1	11.079	54.503	94.014	N.pl3	1	RES1	0.000	
3	  O1	12.422	56.253	94.726	O.2	1	RES1	0.000	
4	  S1	15.499	51.409	82.135	S.2	1	RES1	0.000	
5	  C2	11.330	55.693	94.647	C.2	1	RES1	0.000	
6	  N2	12.795	54.100	90.879	N.pl3	1	RES1	0.000	
7	  O2	10.595	53.700	91.427	O.2	1	RES1	0.000	
8	  C3	12.090	53.756	93.301	C.3	1	RES1	0.000	
9	  N3	11.220	53.094	87.680	N.pl3	1	RES1	0.000	
10	  O3	14.130	56.728	90.115	O.3	1	RES1	0.000	
11	  C4	11.750	53.828	91.802	C.2	1	RES1	0.000	
12	  N4	14.536	50.301	80.037	N.2	1	RES1	0.000	
13	  O4	12.280	51.828	89.226	O.2	1	RES1	0.000	
14	  C5	14.135	54.576	91.186	C.3	1	RES1	0.000	
15	  C6	14.541	55.348	89.972	C.3	1	RES1	0.000	
16	  C7	13.811	54.691	88.843	C.3	1	RES1	0.000	
17	  C8	12.500	54.221	89.457	C.3	1	RES1	0.000	
18	  C9	12.055	52.910	88.764	C.2	1	RES1	0.000	
19	 C10	10.679	52.010	86.930	C.3	1	RES1	0.000	
20	 C11	11.446	51.778	85.670	C.2	1	RES1	0.000	
21	 C12	12.302	52.751	85.146	C.2	1	RES1	0.000	
22	 C13	13.071	52.502	83.987	C.2	1	RES1	0.000	
23	 C14	13.017	51.239	83.354	C.2	1	RES1	0.000	
24	 C15	13.827	50.986	82.183	C.2	1	RES1	0.000	
25	 C16	13.495	50.372	80.957	C.2	1	RES1	0.000	
26	 C17	12.187	49.835	80.529	C.3	1	RES1	0.000	
27	 C18	15.628	50.803	80.538	C.2	1	RES1	0.000	
28	 C19	12.154	50.296	83.877	C.2	1	RES1	0.000	
29	 C20	11.391	50.522	85.002	C.2	1	RES1	0.000	
30	 C55	12.267	52.308	93.853	C.3	1	RES1	0.000	
31	 C56	13.241	51.463	92.961	C.3	1	RES1	0.000	
32	 C57	12.864	52.314	95.263	C.3	1	RES1	0.000	
33	 C58	10.932	51.553	93.928	C.3	1	RES1	0.000	
@<TRIPOS>BOND
1 1 5 1
2 2 5 1
3 2 8 1
4 3 5 2
5 4 24 ar
6 4 27 ar
7 6 11 1
8 6 14 1
9 6 17 1
10 7 11 2
11 8 11 1
12 8 30 1
13 9 18 1
14 10 15 1
15 13 18 2
16 14 15 1
17 15 16 1
18 16 17 1
19 17 18 1
20 9 19 1
21 19 20 1
22 20 21 ar
23 20 29 ar
24 21 22 ar
25 22 23 ar
26 23 24 1
27 23 28 ar
28 24 25 ar
29 12 25 ar
30 25 26 1
31 12 27 ar
32 28 29 ar
33 30 31 1
34 30 32 1
35 30 33 1
@<TRIPOS>SUBSTRUCTURE
1	RES1	1	GROUP	1 ****	RES
