# created with PyMOL 2.5.2
@<TRIPOS>MOLECULE
VHL_5LLI_TargetProtein
37 40 1                 
SMALL
USER_CHARGES
@<TRIPOS>ATOM
1	  S1	16.080	52.310	83.147	S.2	1	RES1	0.000	
2	  N5	15.121	51.166	81.048	N.2	1	RES1	0.000	
3	  N6	11.798	54.045	88.674	N.pl3	1	RES1	0.000	
4	  N7	13.230	55.038	91.887	N.pl3	1	RES1	0.000	
5	  N8	11.415	55.316	95.023	N.pl3	1	RES1	0.000	
6	  N9	8.211	55.258	96.362	N.1	1	RES1	0.000	
7	 O11	13.060	52.822	90.117	O.2	1	RES1	0.000	
8	 O12	14.845	57.513	91.488	O.3	1	RES1	0.000	
9	 O13	11.062	54.577	92.456	O.2	1	RES1	0.000	
10	 O14	12.527	57.113	95.913	O.2	1	RES1	0.000	
11	 C36	12.866	53.666	86.128	C.2	1	RES1	0.000	
12	 C37	13.630	53.409	85.011	C.2	1	RES1	0.000	
13	 C38	13.578	52.159	84.337	C.2	1	RES1	0.000	
14	 C39	14.391	51.869	83.156	C.2	1	RES1	0.000	
15	 C40	14.082	51.252	81.956	C.2	1	RES1	0.000	
16	 C41	12.785	50.670	81.569	C.3	1	RES1	0.000	
17	 C42	16.205	51.686	81.564	C.2	1	RES1	0.000	
18	 C43	12.738	51.183	84.909	C.2	1	RES1	0.000	
19	 C44	12.007	51.409	86.054	C.2	1	RES1	0.000	
20	 C45	12.053	52.656	86.690	C.2	1	RES1	0.000	
21	 C46	11.268	52.900	87.933	C.3	1	RES1	0.000	
22	 C47	12.702	53.916	89.704	C.2	1	RES1	0.000	
23	 C48	13.076	55.202	90.432	C.3	1	RES1	0.000	
24	 C49	14.471	55.664	89.946	C.3	1	RES1	0.000	
25	 C50	15.183	56.124	91.205	C.3	1	RES1	0.000	
26	 C51	14.582	55.253	92.305	C.3	1	RES1	0.000	
27	 C52	12.207	54.790	92.833	C.2	1	RES1	0.000	
28	 C53	12.559	54.738	94.307	C.3	1	RES1	0.000	
29	 C54	11.495	56.465	95.799	C.2	1	RES1	0.000	
30	 C55	10.246	56.885	96.517	C.3	1	RES1	0.000	
31	 C56	9.106	55.996	96.453	C.1	1	RES1	0.000	
32	 C57	10.424	57.643	97.834	C.3	1	RES1	0.000	
33	 C58	9.920	58.357	96.611	C.3	1	RES1	0.000	
34	 C59	12.916	53.277	94.818	C.3	1	RES1	0.000	
35	 C60	11.711	52.340	94.777	C.3	1	RES1	0.000	
36	 C61	13.393	53.347	96.309	C.3	1	RES1	0.000	
37	 C62	14.049	52.675	93.992	C.3	1	RES1	0.000	
@<TRIPOS>BOND
1 1 14 ar
2 1 17 ar
3 7 22 2
4 8 25 1
5 9 27 2
6 10 29 2
7 11 12 ar
8 11 20 ar
9 12 13 ar
10 13 14 1
11 13 18 ar
12 14 15 ar
13 2 15 ar
14 15 16 1
15 2 17 ar
16 18 19 ar
17 19 20 ar
18 20 21 1
19 3 21 1
20 3 22 1
21 22 23 1
22 4 23 1
23 23 24 1
24 24 25 1
25 25 26 1
26 4 26 1
27 4 27 1
28 27 28 1
29 5 28 1
30 28 34 1
31 5 29 1
32 29 30 1
33 30 31 1
34 30 32 1
35 30 33 1
36 6 31 3
37 32 33 1
38 34 35 1
39 34 36 1
40 34 37 1
@<TRIPOS>SUBSTRUCTURE
1	RES1	1	GROUP	1 ****	RES
