# created with PyMOL 2.5.2
@<TRIPOS>MOLECULE
VHL_5NVV_TargetProtein
33 35 1                 
SMALL
USER_CHARGES
@<TRIPOS>ATOM
1	  C1	10.412	56.223	95.442	C.3	1	RES1	0.000	
2	  N1	11.489	54.460	94.220	N.pl3	1	RES1	0.000	
3	  O1	12.696	56.347	94.786	O.2	1	RES1	0.000	
4	  S1	15.916	51.571	82.429	S.2	1	RES1	0.000	
5	  C2	11.657	55.680	94.805	C.2	1	RES1	0.000	
6	  N2	13.149	54.166	91.065	N.pl3	1	RES1	0.000	
7	  O2	11.009	53.684	91.652	O.2	1	RES1	0.000	
8	  C3	12.548	53.763	93.500	C.3	1	RES1	0.000	
9	  N3	11.529	53.186	87.888	N.pl3	1	RES1	0.000	
10	  O3	14.395	56.845	90.290	O.3	1	RES1	0.000	
11	  C4	12.161	53.873	92.001	C.2	1	RES1	0.000	
12	  N4	14.995	50.476	80.272	N.2	1	RES1	0.000	
13	  O4	12.675	51.896	89.422	O.2	1	RES1	0.000	
14	  C5	14.523	54.630	91.327	C.3	1	RES1	0.000	
15	  C6	14.871	55.476	90.129	C.3	1	RES1	0.000	
16	  C7	14.094	54.821	88.984	C.3	1	RES1	0.000	
17	  C8	12.840	54.269	89.625	C.3	1	RES1	0.000	
18	  C9	12.408	52.997	88.955	C.2	1	RES1	0.000	
19	 C10	10.986	52.107	87.107	C.3	1	RES1	0.000	
20	 C11	11.808	51.881	85.886	C.2	1	RES1	0.000	
21	 C12	12.674	52.871	85.382	C.2	1	RES1	0.000	
22	 C13	13.466	52.612	84.276	C.2	1	RES1	0.000	
23	 C14	13.393	51.409	83.556	C.2	1	RES1	0.000	
24	 C15	14.239	51.143	82.401	C.2	1	RES1	0.000	
25	 C16	13.946	50.542	81.167	C.2	1	RES1	0.000	
26	 C17	12.648	49.981	80.706	C.3	1	RES1	0.000	
27	 C18	16.086	50.953	80.843	C.2	1	RES1	0.000	
28	 C19	12.517	50.452	84.051	C.2	1	RES1	0.000	
29	 C20	11.721	50.672	85.175	C.2	1	RES1	0.000	
30	 C55	12.778	52.302	93.988	C.3	1	RES1	0.000	
31	 C56	13.652	51.470	93.046	C.3	1	RES1	0.000	
32	 C57	13.403	52.306	95.380	C.3	1	RES1	0.000	
33	 C58	11.422	51.616	94.120	C.3	1	RES1	0.000	
@<TRIPOS>BOND
1 1 5 1
2 2 5 1
3 2 8 1
4 3 5 2
5 4 24 ar
6 4 27 ar
7 6 11 1
8 6 14 1
9 6 17 1
10 7 11 2
11 8 11 1
12 8 30 1
13 9 18 1
14 10 15 1
15 13 18 2
16 14 15 1
17 15 16 1
18 16 17 1
19 17 18 1
20 9 19 1
21 19 20 1
22 20 21 ar
23 20 29 ar
24 21 22 ar
25 22 23 ar
26 23 24 1
27 23 28 ar
28 24 25 ar
29 12 25 ar
30 25 26 1
31 12 27 ar
32 28 29 ar
33 30 31 1
34 30 32 1
35 30 33 1
@<TRIPOS>SUBSTRUCTURE
1	RES1	1	GROUP	1 ****	RES
