# created with PyMOL 2.5.2
@<TRIPOS>MOLECULE
VHL_5LLI_TargetProtein
32 34 1                 
SMALL
USER_CHARGES
@<TRIPOS>ATOM
1	  C1	12.791	50.822	81.667	C.3	1	RES1	0.000	
2	  N1	11.566	53.725	88.881	N.pl3	1	RES1	0.000	
3	  O1	13.265	52.876	90.153	O.2	1	RES1	0.000	
4	  C2	14.089	51.457	82.073	C.2	1	RES1	0.000	
5	  N2	13.063	55.097	91.864	N.pl3	1	RES1	0.000	
6	  O2	16.113	56.557	90.678	O.3	1	RES1	0.000	
7	  S2	16.005	52.678	83.219	S.2	1	RES1	0.000	
8	  C3	14.414	52.038	83.292	C.2	1	RES1	0.000	
9	  N3	11.463	55.402	95.112	N.pl3	1	RES1	0.000	
10	  O3	10.907	54.757	92.547	O.2	1	RES1	0.000	
11	  C4	13.615	52.165	84.529	C.2	1	RES1	0.000	
12	  O4	12.718	57.120	96.022	O.2	1	RES1	0.000	
13	  C5	12.918	51.072	85.064	C.2	1	RES1	0.000	
14	  C6	12.165	51.216	86.220	C.2	1	RES1	0.000	
15	  C7	12.055	52.428	86.860	C.2	1	RES1	0.000	
16	  C8	11.246	52.525	88.152	C.3	1	RES1	0.000	
17	  C9	12.569	53.805	89.828	C.2	1	RES1	0.000	
18	  N9	15.069	51.506	81.148	N.2	1	RES1	0.000	
19	 C10	12.709	55.198	90.437	C.3	1	RES1	0.000	
20	 C11	13.896	55.985	89.850	C.3	1	RES1	0.000	
21	 C12	15.072	55.556	90.692	C.3	1	RES1	0.000	
22	 C13	14.486	55.399	92.088	C.3	1	RES1	0.000	
23	 C14	12.097	54.875	92.841	C.2	1	RES1	0.000	
24	 C15	12.548	54.780	94.322	C.3	1	RES1	0.000	
25	 C16	11.670	56.531	95.864	C.2	1	RES1	0.000	
26	 C55	12.886	53.323	94.775	C.3	1	RES1	0.000	
27	 C56	11.600	52.485	94.821	C.3	1	RES1	0.000	
28	 C57	13.478	53.367	96.204	C.3	1	RES1	0.000	
29	 C58	13.895	52.609	93.869	C.3	1	RES1	0.000	
30	 C59	12.727	53.522	86.360	C.2	1	RES1	0.000	
31	 C60	13.494	53.415	85.196	C.2	1	RES1	0.000	
32	 C61	16.130	52.108	81.621	C.2	1	RES1	0.000	
@<TRIPOS>BOND
1 1 4 1
2 2 16 1
3 2 17 1
4 3 17 2
5 4 8 ar
6 4 18 ar
7 7 8 ar
8 7 32 ar
9 8 11 1
10 11 13 ar
11 11 31 ar
12 13 14 ar
13 14 15 ar
14 15 16 1
15 5 19 1
16 17 19 1
17 19 20 1
18 20 21 1
19 6 21 1
20 21 22 1
21 5 22 1
22 5 23 1
23 10 23 2
24 23 24 1
25 9 24 1
26 24 26 1
27 9 25 1
28 12 25 2
29 26 27 1
30 26 28 1
31 26 29 1
32 15 30 ar
33 30 31 ar
34 18 32 ar
@<TRIPOS>SUBSTRUCTURE
1	RES1	1	GROUP	1 ****	RES
