# created with PyMOL 2.5.2
@<TRIPOS>MOLECULE
CRBN_6H0G_TargetProtein
20 22 1                 
SMALL
USER_CHARGES
@<TRIPOS>ATOM
1	  N4	1.981	54.435	-85.619	N.pl3	1	RES1	0.000	
2	  N5	1.744	51.773	-82.111	N.2	1	RES1	0.000	
3	  O5	2.829	53.734	-82.840	O.2	1	RES1	0.000	
4	  N6	1.987	50.073	-78.849	N.pl3	1	RES1	0.000	
5	  O6	3.679	49.694	-77.394	O.2	1	RES1	0.000	
6	  O7	0.224	50.421	-80.218	O.2	1	RES1	0.000	
7	  O8	0.422	49.815	-82.240	O.2	1	RES1	0.000	
8	 C25	1.350	53.214	-85.441	C.2	1	RES1	0.000	
9	 C26	0.509	52.701	-86.470	C.2	1	RES1	0.000	
10	 C27	-0.197	51.483	-86.296	C.2	1	RES1	0.000	
11	 C28	-0.132	50.784	-85.082	C.2	1	RES1	0.000	
12	 C29	0.644	51.333	-84.056	C.2	1	RES1	0.000	
13	 C30	1.359	52.516	-84.258	C.2	1	RES1	0.000	
14	 C31	2.073	52.783	-82.992	C.2	1	RES1	0.000	
15	 C32	2.258	51.636	-80.742	C.3	1	RES1	0.000	
16	 C33	3.715	51.254	-80.660	C.3	1	RES1	0.000	
17	 C34	4.138	51.215	-79.203	C.3	1	RES1	0.000	
18	 C35	3.280	50.231	-78.414	C.2	1	RES1	0.000	
19	 C36	1.379	50.659	-79.968	C.2	1	RES1	0.000	
20	 C37	0.882	50.841	-82.715	C.2	1	RES1	0.000	
@<TRIPOS>BOND
1 1 8 1
2 8 9 ar
3 8 13 ar
4 9 10 ar
5 10 11 ar
6 11 12 ar
7 12 13 ar
8 12 20 ar
9 13 14 ar
10 2 14 ar
11 3 14 2
12 2 15 1
13 15 16 1
14 15 19 1
15 16 17 1
16 17 18 1
17 4 18 1
18 5 18 2
19 4 19 1
20 6 19 2
21 2 20 ar
22 7 20 2
@<TRIPOS>SUBSTRUCTURE
1	RES1	1	GROUP	1 ****	RES
