# created with PyMOL 2.5.2
@<TRIPOS>MOLECULE
BRD4_6YQN_TargetProtein
24 27 1                 
SMALL
USER_CHARGES
@<TRIPOS>ATOM
1	 CL1	25.724	17.898	-6.983	Cl	1	RES1	0.000	
2	  C1	26.037	15.083	1.290	C.3	1	RES1	0.000	
3	  N1	30.789	16.820	-0.008	N.2	1	RES1	0.000	
4	  S1	28.507	16.317	1.350	S.2	1	RES1	0.000	
5	  C2	27.228	15.508	0.553	C.2	1	RES1	0.000	
6	  N2	32.685	17.750	0.548	N.2	1	RES1	0.000	
7	  C3	27.528	15.287	-0.788	C.2	1	RES1	0.000	
8	  N3	32.924	16.961	-0.519	N.2	1	RES1	0.000	
9	  C4	26.630	14.566	-1.752	C.3	1	RES1	0.000	
10	  C5	28.804	15.887	-1.192	C.2	1	RES1	0.000	
11	  C6	29.468	16.377	-0.071	C.2	1	RES1	0.000	
12	  C7	31.412	17.703	0.873	C.2	1	RES1	0.000	
13	  C8	30.827	18.481	1.939	C.3	1	RES1	0.000	
14	  N8	30.555	15.784	-2.855	N.2	1	RES1	0.000	
15	  C9	31.772	16.401	-0.826	C.2	1	RES1	0.000	
16	 C10	31.561	15.327	-1.864	C.3	1	RES1	0.000	
17	 C11	32.832	14.965	-2.594	C.3	1	RES1	0.000	
18	 C32	29.329	15.997	-2.577	C.2	1	RES1	0.000	
19	 C33	28.419	16.475	-3.659	C.2	1	RES1	0.000	
20	 C34	27.337	17.316	-3.364	C.2	1	RES1	0.000	
21	 C35	26.502	17.762	-4.403	C.2	1	RES1	0.000	
22	 C36	26.765	17.373	-5.725	C.2	1	RES1	0.000	
23	 C37	27.871	16.551	-5.998	C.2	1	RES1	0.000	
24	 C38	28.698	16.092	-4.987	C.2	1	RES1	0.000	
@<TRIPOS>BOND
1 1 22 1
2 2 5 1
3 3 11 1
4 3 12 ar
5 3 15 ar
6 4 5 ar
7 4 11 ar
8 5 7 ar
9 6 8 ar
10 6 12 ar
11 7 9 1
12 7 10 ar
13 8 15 ar
14 10 11 ar
15 12 13 1
16 14 16 1
17 15 16 1
18 16 17 1
19 10 18 1
20 14 18 2
21 18 19 1
22 19 20 ar
23 19 24 ar
24 20 21 ar
25 21 22 ar
26 22 23 ar
27 23 24 ar
@<TRIPOS>SUBSTRUCTURE
1	RES1	1	GROUP	1 ****	RES
