# created with PyMOL 2.5.2
@<TRIPOS>MOLECULE
CRBN_6H0G_TargetProtein
20 22 1                 
SMALL
USER_CHARGES
@<TRIPOS>ATOM
1	  N4	2.141	54.354	-85.619	N.pl3	1	RES1	0.000	
2	  N5	1.725	51.717	-82.130	N.2	1	RES1	0.000	
3	  O5	2.773	53.718	-82.780	O.2	1	RES1	0.000	
4	  N6	2.053	50.018	-78.887	N.pl3	1	RES1	0.000	
5	  O6	3.728	49.757	-77.396	O.2	1	RES1	0.000	
6	  O7	0.278	50.259	-80.237	O.2	1	RES1	0.000	
7	  O8	0.287	49.827	-82.280	O.2	1	RES1	0.000	
8	 C27	1.339	53.214	-85.415	C.2	1	RES1	0.000	
9	 C28	0.570	52.698	-86.472	C.2	1	RES1	0.000	
10	 C29	-0.173	51.518	-86.321	C.2	1	RES1	0.000	
11	 C30	-0.159	50.821	-85.099	C.2	1	RES1	0.000	
12	 C31	0.608	51.335	-84.071	C.2	1	RES1	0.000	
13	 C32	1.334	52.478	-84.230	C.2	1	RES1	0.000	
14	 C33	2.031	52.765	-82.972	C.2	1	RES1	0.000	
15	 C34	2.206	51.643	-80.739	C.3	1	RES1	0.000	
16	 C35	3.700	51.380	-80.649	C.3	1	RES1	0.000	
17	 C36	4.105	51.335	-79.169	C.3	1	RES1	0.000	
18	 C37	3.300	50.314	-78.406	C.2	1	RES1	0.000	
19	 C38	1.433	50.587	-79.977	C.2	1	RES1	0.000	
20	 C39	0.846	50.854	-82.719	C.2	1	RES1	0.000	
@<TRIPOS>BOND
1 1 8 1
2 8 9 ar
3 8 13 ar
4 9 10 ar
5 10 11 ar
6 11 12 ar
7 12 13 ar
8 12 20 ar
9 13 14 ar
10 2 14 ar
11 3 14 2
12 2 15 1
13 15 16 1
14 15 19 1
15 16 17 1
16 17 18 1
17 4 18 1
18 5 18 2
19 4 19 1
20 6 19 2
21 2 20 ar
22 7 20 2
@<TRIPOS>SUBSTRUCTURE
1	RES1	1	GROUP	1 ****	RES
