# created with PyMOL 2.5.2
@<TRIPOS>MOLECULE
CRBN_6H0G_TargetProtein
20 22 1                 
SMALL
USER_CHARGES
@<TRIPOS>ATOM
1	  N4	1.997	54.442	-85.593	N.pl3	1	RES1	0.000	
2	  N5	1.732	51.742	-82.119	N.2	1	RES1	0.000	
3	  O5	2.836	53.726	-82.846	O.2	1	RES1	0.000	
4	  N6	1.998	50.102	-78.861	N.pl3	1	RES1	0.000	
5	  O6	3.681	49.733	-77.370	O.2	1	RES1	0.000	
6	  O7	0.210	50.435	-80.205	O.2	1	RES1	0.000	
7	  O8	0.407	49.790	-82.285	O.2	1	RES1	0.000	
8	 C23	1.340	53.216	-85.440	C.2	1	RES1	0.000	
9	 C24	0.511	52.701	-86.469	C.2	1	RES1	0.000	
10	 C25	-0.218	51.502	-86.286	C.2	1	RES1	0.000	
11	 C26	-0.142	50.802	-85.086	C.2	1	RES1	0.000	
12	 C27	0.652	51.340	-84.086	C.2	1	RES1	0.000	
13	 C28	1.356	52.481	-84.244	C.2	1	RES1	0.000	
14	 C29	2.061	52.763	-82.996	C.2	1	RES1	0.000	
15	 C30	2.250	51.613	-80.762	C.3	1	RES1	0.000	
16	 C31	3.734	51.236	-80.669	C.3	1	RES1	0.000	
17	 C32	4.144	51.198	-79.189	C.3	1	RES1	0.000	
18	 C33	3.283	50.257	-78.387	C.2	1	RES1	0.000	
19	 C34	1.389	50.658	-79.960	C.2	1	RES1	0.000	
20	 C35	0.903	50.855	-82.712	C.2	1	RES1	0.000	
@<TRIPOS>BOND
1 1 8 1
2 8 9 ar
3 8 13 ar
4 9 10 ar
5 10 11 ar
6 11 12 ar
7 12 13 ar
8 12 20 ar
9 13 14 ar
10 2 14 ar
11 3 14 2
12 2 15 1
13 15 16 1
14 15 19 1
15 16 17 1
16 17 18 1
17 4 18 1
18 5 18 2
19 4 19 1
20 6 19 2
21 2 20 ar
22 7 20 2
@<TRIPOS>SUBSTRUCTURE
1	RES1	1	GROUP	1 ****	RES
