# created with PyMOL 2.5.2
@<TRIPOS>MOLECULE
CRBN_6H0G_TargetProtein
20 22 1                 
SMALL
USER_CHARGES
@<TRIPOS>ATOM
1	  N5	1.955	54.444	-85.593	N.pl3	1	RES1	0.000	
2	  N6	1.711	51.805	-82.106	N.2	1	RES1	0.000	
3	  O6	2.796	53.767	-82.829	O.2	1	RES1	0.000	
4	  N7	1.989	50.064	-78.878	N.pl3	1	RES1	0.000	
5	  O7	3.725	49.657	-77.415	O.2	1	RES1	0.000	
6	  O8	0.188	50.462	-80.190	O.2	1	RES1	0.000	
7	  O9	0.444	49.811	-82.249	O.2	1	RES1	0.000	
8	 C29	1.327	53.194	-85.469	C.2	1	RES1	0.000	
9	 C30	0.547	52.660	-86.461	C.2	1	RES1	0.000	
10	 C31	-0.166	51.465	-86.296	C.2	1	RES1	0.000	
11	 C32	-0.101	50.759	-85.073	C.2	1	RES1	0.000	
12	 C33	0.663	51.342	-84.057	C.2	1	RES1	0.000	
13	 C34	1.364	52.507	-84.218	C.2	1	RES1	0.000	
14	 C35	2.041	52.805	-82.998	C.2	1	RES1	0.000	
15	 C36	2.230	51.652	-80.717	C.3	1	RES1	0.000	
16	 C37	3.692	51.249	-80.685	C.3	1	RES1	0.000	
17	 C38	4.149	51.183	-79.234	C.3	1	RES1	0.000	
18	 C39	3.293	50.218	-78.428	C.2	1	RES1	0.000	
19	 C40	1.367	50.671	-79.946	C.2	1	RES1	0.000	
20	 C41	0.911	50.876	-82.726	C.2	1	RES1	0.000	
@<TRIPOS>BOND
1 1 8 1
2 8 9 ar
3 8 13 ar
4 9 10 ar
5 10 11 ar
6 11 12 ar
7 12 13 ar
8 12 20 ar
9 13 14 ar
10 2 14 ar
11 3 14 2
12 2 15 1
13 15 16 1
14 15 19 1
15 16 17 1
16 17 18 1
17 4 18 1
18 5 18 2
19 4 19 1
20 6 19 2
21 2 20 ar
22 7 20 2
@<TRIPOS>SUBSTRUCTURE
1	RES1	1	GROUP	1 ****	RES
