# created with PyMOL 2.5.2
@<TRIPOS>MOLECULE
CRBN_7BQU_TargetProtein
19 21 1                 
SMALL
USER_CHARGES
@<TRIPOS>ATOM
1	  N5	25.418	17.685	13.148	N.2	1	RES1	0.000	
2	  N6	25.067	19.875	16.069	N.pl3	1	RES1	0.000	
3	  O7	27.397	17.203	11.962	O.2	1	RES1	0.000	
4	  O8	26.347	20.296	17.892	O.2	1	RES1	0.000	
5	  O9	23.741	19.606	14.268	O.2	1	RES1	0.000	
6	 O10	23.105	17.685	13.658	O.2	1	RES1	0.000	
7	 C29	25.559	15.510	10.236	C.2	1	RES1	0.000	
8	 C30	24.471	14.848	9.649	C.2	1	RES1	0.000	
9	 C31	23.159	14.982	10.182	C.2	1	RES1	0.000	
10	 C32	22.940	15.800	11.299	C.2	1	RES1	0.000	
11	 C33	24.018	16.447	11.833	C.2	1	RES1	0.000	
12	 C34	25.295	16.299	11.344	C.2	1	RES1	0.000	
13	 C35	26.195	17.107	12.159	C.2	1	RES1	0.000	
14	 C36	25.942	18.619	14.159	C.3	1	RES1	0.000	
15	 C37	26.854	17.955	15.201	C.3	1	RES1	0.000	
16	 C38	27.348	19.017	16.159	C.3	1	RES1	0.000	
17	 C39	26.237	19.790	16.794	C.2	1	RES1	0.000	
18	 C40	24.810	19.386	14.811	C.2	1	RES1	0.000	
19	 C41	24.090	17.343	13.018	C.2	1	RES1	0.000	
@<TRIPOS>BOND
1 6 19 2
2 7 8 ar
3 7 12 ar
4 8 9 ar
5 9 10 ar
6 10 11 ar
7 11 12 ar
8 11 19 ar
9 12 13 ar
10 1 13 ar
11 3 13 2
12 1 14 1
13 14 15 1
14 14 18 1
15 15 16 1
16 16 17 1
17 2 17 1
18 4 17 2
19 2 18 1
20 5 18 2
21 1 19 ar
@<TRIPOS>SUBSTRUCTURE
1	RES1	1	GROUP	1 ****	RES
