# created with PyMOL 2.5.2
@<TRIPOS>MOLECULE
CRBN_6H0G_TargetProtein
20 22 1                 
SMALL
USER_CHARGES
@<TRIPOS>ATOM
1	  N4	1.973	54.440	-85.600	N.pl3	1	RES1	0.000	
2	  N5	1.761	51.753	-82.144	N.2	1	RES1	0.000	
3	  N6	1.988	50.071	-78.843	N.pl3	1	RES1	0.000	
4	  O6	2.839	53.697	-82.865	O.2	1	RES1	0.000	
5	  O7	3.629	49.711	-77.379	O.3	1	RES1	0.000	
6	  O8	0.241	50.447	-80.239	O.2	1	RES1	0.000	
7	  O9	0.421	49.845	-82.267	O.2	1	RES1	0.000	
8	 C23	1.326	53.189	-85.459	C.2	1	RES1	0.000	
9	 C24	0.504	52.678	-86.452	C.2	1	RES1	0.000	
10	 C25	-0.208	51.520	-86.266	C.2	1	RES1	0.000	
11	 C26	-0.161	50.793	-85.064	C.2	1	RES1	0.000	
12	 C27	0.646	51.337	-84.057	C.2	1	RES1	0.000	
13	 C28	1.353	52.493	-84.238	C.2	1	RES1	0.000	
14	 C29	2.101	52.786	-83.014	C.2	1	RES1	0.000	
15	 C30	2.281	51.624	-80.756	C.3	1	RES1	0.000	
16	 C31	3.734	51.262	-80.649	C.3	1	RES1	0.000	
17	 C32	4.144	51.198	-79.182	C.3	1	RES1	0.000	
18	 C33	3.264	50.251	-78.408	C.3	1	RES1	0.000	
19	 C34	1.387	50.655	-79.973	C.2	1	RES1	0.000	
20	 C35	0.901	50.844	-82.713	C.2	1	RES1	0.000	
@<TRIPOS>BOND
1 1 8 1
2 8 9 ar
3 8 13 ar
4 9 10 ar
5 10 11 ar
6 11 12 ar
7 12 13 ar
8 12 20 ar
9 13 14 ar
10 2 14 ar
11 4 14 2
12 2 15 1
13 15 16 1
14 15 19 1
15 16 17 1
16 17 18 1
17 3 18 1
18 5 18 1
19 3 19 1
20 6 19 2
21 2 20 ar
22 7 20 2
@<TRIPOS>SUBSTRUCTURE
1	RES1	1	GROUP	1 ****	RES
