# created with PyMOL 2.5.2
@<TRIPOS>MOLECULE
BRAF_5CSX_TargetProtein
41 45 1                 
SMALL
USER_CHARGES
@<TRIPOS>ATOM
1	  C1	22.651	-69.222	85.748	C.3	1	RES1	0.000	
2	  N1	20.500	-70.190	90.392	N.pl3	1	RES1	0.000	
3	  O1	23.032	-69.895	90.450	O.2	1	RES1	0.000	
4	  S1	22.010	-70.498	89.625	S.O2	1	RES1	0.000	
5	  C2	22.945	-69.766	87.119	C.3	1	RES1	0.000	
6	  N2	17.567	-73.961	89.364	N.2	1	RES1	0.000	
7	  O2	22.090	-71.908	89.260	O.2	1	RES1	0.000	
8	  C3	21.804	-69.528	88.132	C.3	1	RES1	0.000	
9	  N3	16.240	-79.543	87.512	N.2	1	RES1	0.000	
10	  O3	15.697	-84.137	92.648	O.2	1	RES1	0.000	
11	  C4	19.294	-70.716	89.760	C.2	1	RES1	0.000	
12	  N4	17.322	-78.331	85.723	N.2	1	RES1	0.000	
13	  C5	18.416	-69.846	89.065	C.2	1	RES1	0.000	
14	  N5	16.818	-76.953	91.071	N.2	1	RES1	0.000	
15	  C6	17.265	-70.365	88.473	C.2	1	RES1	0.000	
16	  N6	16.469	-77.669	93.329	N.pl3	1	RES1	0.000	
17	  C7	16.985	-71.728	88.592	C.2	1	RES1	0.000	
18	  N7	15.667	-81.827	92.930	N.pl3	1	RES1	0.000	
19	  C8	17.832	-72.573	89.291	C.2	1	RES1	0.000	
20	  C9	17.463	-74.832	88.300	C.2	1	RES1	0.000	
21	 C10	17.156	-76.080	88.750	C.2	1	RES1	0.000	
22	 C11	17.019	-77.257	87.869	C.2	1	RES1	0.000	
23	 C12	16.414	-78.432	88.299	C.2	1	RES1	0.000	
24	 C13	16.702	-79.408	86.258	C.2	1	RES1	0.000	
25	 C14	17.455	-77.266	86.543	C.2	1	RES1	0.000	
26	 C15	17.087	-76.002	90.168	C.2	1	RES1	0.000	
27	 C16	16.744	-76.626	92.379	C.2	1	RES1	0.000	
28	 C17	16.880	-77.496	94.743	C.3	1	RES1	0.000	
29	 C18	15.970	-78.986	92.842	C.3	1	RES1	0.000	
30	 C19	15.014	-79.644	93.855	C.3	1	RES1	0.000	
31	 C20	14.526	-80.997	93.305	C.3	1	RES1	0.000	
32	 C21	15.848	-83.146	93.375	C.2	1	RES1	0.000	
33	 C22	16.225	-83.338	94.812	C.3	1	RES1	0.000	
34	 C49	16.624	-81.219	91.985	C.3	1	RES1	0.000	
35	 C50	17.142	-79.906	92.490	C.3	1	RES1	0.000	
36	 C51	16.965	-75.299	92.800	C.2	1	RES1	0.000	
37	 C52	17.239	-74.319	91.870	C.2	1	RES1	0.000	
38	 C53	17.319	-74.667	90.528	C.2	1	RES1	0.000	
39	 C54	19.005	-72.073	89.831	C.2	1	RES1	0.000	
40	  F1	15.843	-72.206	88.025	 F	1	RES1	0.000	
41	  F2	19.891	-72.887	90.486	 F	1	RES1	0.000	
@<TRIPOS>BOND
1 1 5 1
2 2 4 1
3 2 11 1
4 3 4 2
5 4 7 2
6 4 8 1
7 5 8 1
8 6 19 1
9 6 20 ar
10 6 38 ar
11 11 13 ar
12 11 39 ar
13 13 15 ar
14 15 17 ar
15 17 19 ar
16 20 21 ar
17 21 22 1
18 21 26 ar
19 22 23 ar
20 22 25 ar
21 9 23 ar
22 9 24 ar
23 12 24 ar
24 12 25 ar
25 14 26 ar
26 26 38 ar
27 14 27 ar
28 16 27 1
29 27 36 ar
30 16 28 1
31 16 29 1
32 29 30 1
33 29 35 1
34 30 31 1
35 18 31 1
36 10 32 2
37 18 32 1
38 32 33 1
39 18 34 1
40 34 35 1
41 36 37 ar
42 37 38 ar
43 19 39 ar
44 17 40 1
45 39 41 1
@<TRIPOS>SUBSTRUCTURE
1	RES1	1	GROUP	1 ****	RES
