# created with PyMOL 2.5.2
@<TRIPOS>MOLECULE
BRAF_5CSX_TargetProtein
41 45 1                 
SMALL
USER_CHARGES
@<TRIPOS>ATOM
1	  C1	22.615	-69.393	85.534	C.3	1	RES1	0.000	
2	  N1	20.302	-70.180	90.146	N.pl3	1	RES1	0.000	
3	  O1	22.888	-69.875	90.231	O.2	1	RES1	0.000	
4	  S1	21.837	-70.501	89.433	S.O2	1	RES1	0.000	
5	  C2	22.866	-69.904	86.950	C.3	1	RES1	0.000	
6	  N2	17.531	-74.196	89.596	N.2	1	RES1	0.000	
7	  O2	21.873	-71.913	89.167	O.2	1	RES1	0.000	
8	  C3	21.715	-69.645	87.866	C.3	1	RES1	0.000	
9	  N3	17.190	-78.912	86.470	N.2	1	RES1	0.000	
10	  O3	17.161	-82.423	90.525	O.2	1	RES1	0.000	
11	  C4	19.126	-70.826	89.591	C.2	1	RES1	0.000	
12	  N4	16.190	-79.938	88.401	N.2	1	RES1	0.000	
13	  C5	18.228	-70.122	88.771	C.2	1	RES1	0.000	
14	  N5	16.961	-76.983	91.659	N.2	1	RES1	0.000	
15	  C6	17.093	-70.767	88.247	C.2	1	RES1	0.000	
16	  N6	16.797	-77.437	94.002	N.pl3	1	RES1	0.000	
17	  C7	16.888	-72.113	88.503	C.2	1	RES1	0.000	
18	  N7	16.041	-81.135	92.064	N.pl3	1	RES1	0.000	
19	  C8	17.762	-72.809	89.321	C.2	1	RES1	0.000	
20	  C9	17.400	-75.149	88.618	C.2	1	RES1	0.000	
21	 C10	17.148	-76.367	89.229	C.2	1	RES1	0.000	
22	 C11	16.975	-77.613	88.502	C.2	1	RES1	0.000	
23	 C12	17.351	-77.776	87.146	C.2	1	RES1	0.000	
24	 C13	16.615	-79.949	87.095	C.2	1	RES1	0.000	
25	 C14	16.365	-78.747	89.053	C.2	1	RES1	0.000	
26	 C15	17.151	-76.110	90.628	C.2	1	RES1	0.000	
27	 C16	17.013	-76.497	92.936	C.2	1	RES1	0.000	
28	 C17	16.932	-76.905	95.367	C.3	1	RES1	0.000	
29	 C18	16.333	-78.834	93.742	C.3	1	RES1	0.000	
30	 C19	17.499	-79.796	93.483	C.3	1	RES1	0.000	
31	 C20	16.995	-81.177	93.176	C.3	1	RES1	0.000	
32	 C21	16.136	-81.926	90.895	C.2	1	RES1	0.000	
33	 C22	14.853	-82.140	90.091	C.3	1	RES1	0.000	
34	 C51	14.906	-80.253	92.248	C.3	1	RES1	0.000	
35	 C52	15.364	-78.833	92.544	C.3	1	RES1	0.000	
36	 C53	17.267	-75.138	93.169	C.2	1	RES1	0.000	
37	 C54	17.457	-74.268	92.125	C.2	1	RES1	0.000	
38	 C55	17.392	-74.763	90.840	C.2	1	RES1	0.000	
39	 C56	18.874	-72.154	89.859	C.2	1	RES1	0.000	
40	  F1	15.792	-72.706	87.990	 F	1	RES1	0.000	
41	  F2	19.718	-72.860	90.666	 F	1	RES1	0.000	
@<TRIPOS>BOND
1 1 5 1
2 2 4 1
3 2 11 1
4 3 4 2
5 4 7 2
6 4 8 1
7 5 8 1
8 6 19 1
9 6 20 ar
10 6 38 ar
11 11 13 ar
12 11 39 ar
13 13 15 ar
14 15 17 ar
15 17 19 ar
16 20 21 ar
17 21 22 1
18 21 26 ar
19 22 23 ar
20 22 25 ar
21 9 23 ar
22 9 24 ar
23 12 24 ar
24 12 25 ar
25 14 26 ar
26 26 38 ar
27 14 27 ar
28 16 27 1
29 27 36 ar
30 16 28 1
31 16 29 1
32 29 30 1
33 29 35 1
34 30 31 1
35 18 31 1
36 10 32 2
37 18 32 1
38 32 33 1
39 18 34 1
40 34 35 1
41 36 37 ar
42 37 38 ar
43 19 39 ar
44 17 40 1
45 39 41 1
@<TRIPOS>SUBSTRUCTURE
1	RES1	1	GROUP	1 ****	RES
