# created with PyMOL 2.5.2
@<TRIPOS>MOLECULE
BRAF_5CSX_TargetProtein
41 45 1                 
SMALL
USER_CHARGES
@<TRIPOS>ATOM
1	  C1	22.509	-69.449	85.529	C.3	1	RES1	0.000	
2	  N1	20.311	-70.108	90.215	N.pl3	1	RES1	0.000	
3	  O1	22.882	-69.844	90.274	O.2	1	RES1	0.000	
4	  S1	21.832	-70.478	89.525	S.O2	1	RES1	0.000	
5	  C2	22.790	-69.922	86.956	C.3	1	RES1	0.000	
6	  N2	17.564	-74.167	89.531	N.2	1	RES1	0.000	
7	  O2	21.842	-71.890	89.243	O.2	1	RES1	0.000	
8	  C3	21.621	-69.640	87.946	C.3	1	RES1	0.000	
9	  N3	17.174	-78.899	86.390	N.2	1	RES1	0.000	
10	  O3	17.197	-82.611	90.801	O.2	1	RES1	0.000	
11	  C4	19.162	-70.780	89.658	C.2	1	RES1	0.000	
12	  N4	16.111	-79.874	88.315	N.2	1	RES1	0.000	
13	  C5	18.301	-70.083	88.786	C.2	1	RES1	0.000	
14	  N5	16.910	-76.980	91.573	N.2	1	RES1	0.000	
15	  C6	17.201	-70.706	88.211	C.2	1	RES1	0.000	
16	  N6	16.752	-77.419	93.916	N.pl3	1	RES1	0.000	
17	  C7	16.954	-72.043	88.449	C.2	1	RES1	0.000	
18	  N7	16.016	-81.236	92.233	N.pl3	1	RES1	0.000	
19	  C8	17.833	-72.789	89.288	C.2	1	RES1	0.000	
20	  C9	17.442	-75.129	88.551	C.2	1	RES1	0.000	
21	 C10	17.174	-76.331	89.166	C.2	1	RES1	0.000	
22	 C11	16.951	-77.591	88.400	C.2	1	RES1	0.000	
23	 C12	17.361	-77.740	87.080	C.2	1	RES1	0.000	
24	 C13	16.523	-79.876	87.039	C.2	1	RES1	0.000	
25	 C14	16.317	-78.681	88.962	C.2	1	RES1	0.000	
26	 C15	17.139	-76.069	90.550	C.2	1	RES1	0.000	
27	 C16	16.963	-76.509	92.842	C.2	1	RES1	0.000	
28	 C17	17.235	-76.937	95.241	C.3	1	RES1	0.000	
29	 C18	16.285	-78.798	93.739	C.3	1	RES1	0.000	
30	 C19	17.507	-79.718	93.516	C.3	1	RES1	0.000	
31	 C20	17.017	-81.152	93.309	C.3	1	RES1	0.000	
32	 C21	16.115	-82.123	91.140	C.2	1	RES1	0.000	
33	 C22	14.886	-82.489	90.377	C.3	1	RES1	0.000	
34	 C53	14.842	-80.386	92.409	C.3	1	RES1	0.000	
35	 C54	15.263	-78.928	92.574	C.3	1	RES1	0.000	
36	 C55	17.248	-75.162	93.085	C.2	1	RES1	0.000	
37	 C56	17.479	-74.254	92.060	C.2	1	RES1	0.000	
38	 C57	17.378	-74.752	90.767	C.2	1	RES1	0.000	
39	 C58	18.913	-72.162	89.889	C.2	1	RES1	0.000	
40	  F1	15.917	-72.660	87.851	 F	1	RES1	0.000	
41	  F2	19.714	-72.836	90.749	 F	1	RES1	0.000	
@<TRIPOS>BOND
1 1 5 1
2 2 4 1
3 2 11 1
4 3 4 2
5 4 7 2
6 4 8 1
7 5 8 1
8 6 19 1
9 6 20 ar
10 6 38 ar
11 11 13 ar
12 11 39 ar
13 13 15 ar
14 15 17 ar
15 17 19 ar
16 20 21 ar
17 21 22 1
18 21 26 ar
19 22 23 ar
20 22 25 ar
21 9 23 ar
22 9 24 ar
23 12 24 ar
24 12 25 ar
25 14 26 ar
26 26 38 ar
27 14 27 ar
28 16 27 1
29 27 36 ar
30 16 28 1
31 16 29 1
32 29 30 1
33 29 35 1
34 30 31 1
35 18 31 1
36 10 32 2
37 18 32 1
38 32 33 1
39 18 34 1
40 34 35 1
41 36 37 ar
42 37 38 ar
43 19 39 ar
44 17 40 1
45 39 41 1
@<TRIPOS>SUBSTRUCTURE
1	RES1	1	GROUP	1 ****	RES
