# created with PyMOL 2.5.2
@<TRIPOS>MOLECULE
BRAF_5CSX_TargetProtein
41 45 1                 
SMALL
USER_CHARGES
@<TRIPOS>ATOM
1	  C1	22.624	-69.213	85.757	C.3	1	RES1	0.000	
2	  N1	20.455	-70.166	90.401	N.pl3	1	RES1	0.000	
3	  O1	21.948	-71.920	89.213	O.2	1	RES1	0.000	
4	  S1	21.965	-70.507	89.616	S.O2	1	RES1	0.000	
5	  C2	22.955	-69.815	87.109	C.3	1	RES1	0.000	
6	  N2	17.579	-73.963	89.371	N.2	1	RES1	0.000	
7	  O2	23.062	-69.997	90.388	O.2	1	RES1	0.000	
8	  C3	21.818	-69.552	88.120	C.3	1	RES1	0.000	
9	  N3	17.332	-78.343	85.740	N.2	1	RES1	0.000	
10	  O3	15.642	-84.105	92.633	O.2	1	RES1	0.000	
11	  C4	19.228	-70.648	89.800	C.2	1	RES1	0.000	
12	  N4	16.238	-79.512	87.542	N.2	1	RES1	0.000	
13	  C5	18.347	-69.856	89.080	C.2	1	RES1	0.000	
14	  N5	16.868	-76.970	91.055	N.2	1	RES1	0.000	
15	  C6	17.223	-70.376	88.485	C.2	1	RES1	0.000	
16	  N6	16.566	-77.686	93.334	N.pl3	1	RES1	0.000	
17	  C7	16.968	-71.731	88.577	C.2	1	RES1	0.000	
18	  N7	15.609	-81.827	92.938	N.pl3	1	RES1	0.000	
19	  C8	17.829	-72.578	89.279	C.2	1	RES1	0.000	
20	  C9	17.496	-74.819	88.300	C.2	1	RES1	0.000	
21	 C10	17.208	-76.084	88.747	C.2	1	RES1	0.000	
22	 C11	17.064	-77.264	87.873	C.2	1	RES1	0.000	
23	 C12	17.499	-77.265	86.540	C.2	1	RES1	0.000	
24	 C13	16.703	-79.404	86.272	C.2	1	RES1	0.000	
25	 C14	16.422	-78.424	88.312	C.2	1	RES1	0.000	
26	 C15	17.127	-75.995	90.182	C.2	1	RES1	0.000	
27	 C16	16.848	-76.659	92.385	C.2	1	RES1	0.000	
28	 C17	16.665	-77.409	94.784	C.3	1	RES1	0.000	
29	 C18	16.015	-78.975	92.809	C.3	1	RES1	0.000	
30	 C19	15.083	-79.614	93.859	C.3	1	RES1	0.000	
31	 C20	14.530	-80.923	93.327	C.3	1	RES1	0.000	
32	 C21	15.774	-83.161	93.341	C.2	1	RES1	0.000	
33	 C22	16.194	-83.345	94.775	C.3	1	RES1	0.000	
34	 C55	16.549	-81.278	91.939	C.3	1	RES1	0.000	
35	 C56	17.160	-79.943	92.448	C.3	1	RES1	0.000	
36	 C57	17.111	-75.334	92.806	C.2	1	RES1	0.000	
37	 C58	17.339	-74.303	91.880	C.2	1	RES1	0.000	
38	 C59	17.344	-74.671	90.549	C.2	1	RES1	0.000	
39	 C60	18.983	-72.008	89.867	C.2	1	RES1	0.000	
40	  F1	15.872	-72.221	87.957	 F	1	RES1	0.000	
41	  F2	19.834	-72.832	90.572	 F	1	RES1	0.000	
@<TRIPOS>BOND
1 1 5 1
2 2 4 1
3 2 11 1
4 3 4 2
5 4 7 2
6 4 8 1
7 5 8 1
8 6 19 1
9 6 20 ar
10 6 38 ar
11 11 13 ar
12 11 39 ar
13 13 15 ar
14 15 17 ar
15 17 19 ar
16 20 21 ar
17 21 22 1
18 21 26 ar
19 22 23 ar
20 22 25 ar
21 9 23 ar
22 9 24 ar
23 12 24 ar
24 12 25 ar
25 14 26 ar
26 26 38 ar
27 14 27 ar
28 16 27 1
29 27 36 ar
30 16 28 1
31 16 29 1
32 29 30 1
33 29 35 1
34 30 31 1
35 18 31 1
36 10 32 2
37 18 32 1
38 32 33 1
39 18 34 1
40 34 35 1
41 36 37 ar
42 37 38 ar
43 19 39 ar
44 17 40 1
45 39 41 1
@<TRIPOS>SUBSTRUCTURE
1	RES1	1	GROUP	1 ****	RES
