# created with PyMOL 2.5.2
@<TRIPOS>MOLECULE
BRAF_5CSX_TargetProtein
41 45 1                 
SMALL
USER_CHARGES
@<TRIPOS>ATOM
1	  C1	22.659	-69.171	85.812	C.3	1	RES1	0.000	
2	  N1	20.481	-70.200	90.398	N.pl3	1	RES1	0.000	
3	  O1	22.184	-71.876	89.286	O.2	1	RES1	0.000	
4	  S1	22.009	-70.488	89.668	S.O2	1	RES1	0.000	
5	  C2	22.966	-69.753	87.214	C.3	1	RES1	0.000	
6	  N2	17.560	-73.965	89.334	N.2	1	RES1	0.000	
7	  O2	22.998	-69.794	90.485	O.2	1	RES1	0.000	
8	  C3	21.827	-69.494	88.167	C.3	1	RES1	0.000	
9	  N3	17.238	-78.417	85.748	N.2	1	RES1	0.000	
10	  O3	15.771	-84.099	92.552	O.2	1	RES1	0.000	
11	  C4	19.307	-70.704	89.745	C.2	1	RES1	0.000	
12	  N4	16.206	-79.551	87.590	N.2	1	RES1	0.000	
13	  C5	18.413	-69.855	89.059	C.2	1	RES1	0.000	
14	  N5	16.819	-76.978	91.049	N.2	1	RES1	0.000	
15	  C6	17.257	-70.369	88.459	C.2	1	RES1	0.000	
16	  N6	16.517	-77.656	93.316	N.pl3	1	RES1	0.000	
17	  C7	16.975	-71.732	88.572	C.2	1	RES1	0.000	
18	  N7	15.681	-81.820	92.949	N.pl3	1	RES1	0.000	
19	  C8	17.855	-72.595	89.234	C.2	1	RES1	0.000	
20	  C9	17.455	-74.831	88.258	C.2	1	RES1	0.000	
21	 C10	17.155	-76.103	88.719	C.2	1	RES1	0.000	
22	 C11	16.959	-77.280	87.858	C.2	1	RES1	0.000	
23	 C12	17.392	-77.321	86.558	C.2	1	RES1	0.000	
24	 C13	16.652	-79.468	86.325	C.2	1	RES1	0.000	
25	 C14	16.371	-78.454	88.341	C.2	1	RES1	0.000	
26	 C15	17.085	-75.996	90.132	C.2	1	RES1	0.000	
27	 C16	16.784	-76.633	92.369	C.2	1	RES1	0.000	
28	 C17	16.933	-77.474	94.719	C.3	1	RES1	0.000	
29	 C18	15.991	-78.965	92.810	C.3	1	RES1	0.000	
30	 C19	15.039	-79.630	93.829	C.3	1	RES1	0.000	
31	 C20	14.547	-80.948	93.322	C.3	1	RES1	0.000	
32	 C21	15.830	-83.127	93.344	C.2	1	RES1	0.000	
33	 C22	16.184	-83.380	94.789	C.3	1	RES1	0.000	
34	 C55	16.609	-81.228	91.979	C.3	1	RES1	0.000	
35	 C56	17.152	-79.901	92.452	C.3	1	RES1	0.000	
36	 C57	17.003	-75.296	92.763	C.2	1	RES1	0.000	
37	 C58	17.297	-74.309	91.851	C.2	1	RES1	0.000	
38	 C59	17.324	-74.686	90.515	C.2	1	RES1	0.000	
39	 C60	19.007	-72.069	89.836	C.2	1	RES1	0.000	
40	  F1	15.854	-72.200	88.011	 F	1	RES1	0.000	
41	  F2	19.859	-72.895	90.496	 F	1	RES1	0.000	
@<TRIPOS>BOND
1 1 5 1
2 2 4 1
3 2 11 1
4 3 4 2
5 4 7 2
6 4 8 1
7 5 8 1
8 6 19 1
9 6 20 ar
10 6 38 ar
11 11 13 ar
12 11 39 ar
13 13 15 ar
14 15 17 ar
15 17 19 ar
16 20 21 ar
17 21 22 1
18 21 26 ar
19 22 23 ar
20 22 25 ar
21 9 23 ar
22 9 24 ar
23 12 24 ar
24 12 25 ar
25 14 26 ar
26 26 38 ar
27 14 27 ar
28 16 27 1
29 27 36 ar
30 16 28 1
31 16 29 1
32 29 30 1
33 29 35 1
34 30 31 1
35 18 31 1
36 10 32 2
37 18 32 1
38 32 33 1
39 18 34 1
40 34 35 1
41 36 37 ar
42 37 38 ar
43 19 39 ar
44 17 40 1
45 39 41 1
@<TRIPOS>SUBSTRUCTURE
1	RES1	1	GROUP	1 ****	RES
