# created with PyMOL 2.5.2
@<TRIPOS>MOLECULE
BRD4_6YQN_TargetProtein
24 27 1                 
SMALL
USER_CHARGES
@<TRIPOS>ATOM
1	 CL1	25.732	17.898	-6.982	Cl	1	RES1	0.000	
2	  C1	26.027	15.097	1.287	C.3	1	RES1	0.000	
3	  N1	30.793	16.803	0.009	N.2	1	RES1	0.000	
4	  S1	28.490	16.317	1.362	S.2	1	RES1	0.000	
5	  C2	27.248	15.515	0.509	C.2	1	RES1	0.000	
6	  N2	32.708	17.780	0.562	N.2	1	RES1	0.000	
7	  C3	27.526	15.284	-0.819	C.2	1	RES1	0.000	
8	  N3	32.909	16.961	-0.524	N.2	1	RES1	0.000	
9	  C4	26.620	14.575	-1.739	C.3	1	RES1	0.000	
10	  C5	28.795	15.882	-1.198	C.2	1	RES1	0.000	
11	  C6	29.471	16.358	-0.067	C.2	1	RES1	0.000	
12	  C7	31.425	17.666	0.854	C.2	1	RES1	0.000	
13	  C8	30.816	18.510	1.948	C.3	1	RES1	0.000	
14	  N8	30.586	15.786	-2.878	N.2	1	RES1	0.000	
15	  C9	31.778	16.396	-0.834	C.2	1	RES1	0.000	
16	 C10	31.552	15.336	-1.852	C.3	1	RES1	0.000	
17	 C11	32.853	14.944	-2.591	C.3	1	RES1	0.000	
18	 C32	29.337	16.014	-2.550	C.2	1	RES1	0.000	
19	 C33	28.421	16.476	-3.646	C.2	1	RES1	0.000	
20	 C34	27.335	17.298	-3.354	C.2	1	RES1	0.000	
21	 C35	26.486	17.760	-4.395	C.2	1	RES1	0.000	
22	 C36	26.747	17.354	-5.729	C.2	1	RES1	0.000	
23	 C37	27.850	16.548	-6.005	C.2	1	RES1	0.000	
24	 C38	28.699	16.123	-4.979	C.2	1	RES1	0.000	
@<TRIPOS>BOND
1 1 22 1
2 2 5 1
3 3 11 1
4 3 12 ar
5 3 15 ar
6 4 5 ar
7 4 11 ar
8 5 7 ar
9 6 8 ar
10 6 12 ar
11 7 9 1
12 7 10 ar
13 8 15 ar
14 10 11 ar
15 12 13 1
16 14 16 1
17 15 16 1
18 16 17 1
19 10 18 1
20 14 18 2
21 18 19 1
22 19 20 ar
23 19 24 ar
24 20 21 ar
25 21 22 ar
26 22 23 ar
27 23 24 ar
@<TRIPOS>SUBSTRUCTURE
1	RES1	1	GROUP	1 ****	RES
