# created with PyMOL 2.5.2
@<TRIPOS>MOLECULE
BRAF_5CSX_TargetProtein
41 45 1                 
SMALL
USER_CHARGES
@<TRIPOS>ATOM
1	  C1	22.695	-69.324	85.597	C.3	1	RES1	0.000	
2	  N1	20.263	-70.154	90.153	N.pl3	1	RES1	0.000	
3	  O1	22.864	-69.825	90.299	O.2	1	RES1	0.000	
4	  S1	21.826	-70.465	89.489	S.O2	1	RES1	0.000	
5	  C2	22.938	-69.849	87.013	C.3	1	RES1	0.000	
6	  N2	17.529	-74.148	89.524	N.2	1	RES1	0.000	
7	  O2	21.909	-71.878	89.196	O.2	1	RES1	0.000	
8	  C3	21.736	-69.599	87.935	C.3	1	RES1	0.000	
9	  N3	17.182	-78.864	86.367	N.2	1	RES1	0.000	
10	  O3	16.973	-82.642	90.674	O.2	1	RES1	0.000	
11	  C4	19.095	-70.761	89.593	C.2	1	RES1	0.000	
12	  N4	16.193	-79.880	88.317	N.2	1	RES1	0.000	
13	  C5	18.192	-70.068	88.770	C.2	1	RES1	0.000	
14	  N5	16.949	-76.974	91.568	N.2	1	RES1	0.000	
15	  C6	17.078	-70.703	88.233	C.2	1	RES1	0.000	
16	  N6	16.902	-77.437	93.919	N.pl3	1	RES1	0.000	
17	  C7	16.864	-72.059	88.487	C.2	1	RES1	0.000	
18	  N7	15.968	-81.286	92.239	N.pl3	1	RES1	0.000	
19	  C8	17.759	-72.771	89.268	C.2	1	RES1	0.000	
20	  C9	17.389	-75.114	88.545	C.2	1	RES1	0.000	
21	 C10	17.154	-76.350	89.142	C.2	1	RES1	0.000	
22	 C11	16.960	-77.587	88.401	C.2	1	RES1	0.000	
23	 C12	17.339	-77.749	87.061	C.2	1	RES1	0.000	
24	 C13	16.607	-79.892	87.033	C.2	1	RES1	0.000	
25	 C14	16.388	-78.724	88.986	C.2	1	RES1	0.000	
26	 C15	17.153	-76.076	90.537	C.2	1	RES1	0.000	
27	 C16	17.061	-76.519	92.827	C.2	1	RES1	0.000	
28	 C17	17.125	-76.995	95.300	C.3	1	RES1	0.000	
29	 C18	16.432	-78.844	93.711	C.3	1	RES1	0.000	
30	 C19	17.573	-79.811	93.403	C.3	1	RES1	0.000	
31	 C20	17.052	-81.241	93.209	C.3	1	RES1	0.000	
32	 C21	15.937	-82.124	91.142	C.2	1	RES1	0.000	
33	 C22	14.613	-82.422	90.519	C.3	1	RES1	0.000	
34	 C57	14.830	-80.401	92.534	C.3	1	RES1	0.000	
35	 C58	15.289	-78.953	92.690	C.3	1	RES1	0.000	
36	 C59	17.325	-75.164	93.105	C.2	1	RES1	0.000	
37	 C60	17.498	-74.258	92.064	C.2	1	RES1	0.000	
38	 C61	17.399	-74.747	90.765	C.2	1	RES1	0.000	
39	 C62	18.853	-72.128	89.839	C.2	1	RES1	0.000	
40	  F1	15.799	-72.660	87.932	 F	1	RES1	0.000	
41	  F2	19.723	-72.791	90.624	 F	1	RES1	0.000	
@<TRIPOS>BOND
1 1 5 1
2 2 4 1
3 2 11 1
4 3 4 2
5 4 7 2
6 4 8 1
7 5 8 1
8 6 19 1
9 6 20 ar
10 6 38 ar
11 11 13 ar
12 11 39 ar
13 13 15 ar
14 15 17 ar
15 17 19 ar
16 20 21 ar
17 21 22 1
18 21 26 ar
19 22 23 ar
20 22 25 ar
21 9 23 ar
22 9 24 ar
23 12 24 ar
24 12 25 ar
25 14 26 ar
26 26 38 ar
27 14 27 ar
28 16 27 1
29 27 36 ar
30 16 28 1
31 16 29 1
32 29 30 1
33 29 35 1
34 30 31 1
35 18 31 1
36 10 32 2
37 18 32 1
38 32 33 1
39 18 34 1
40 34 35 1
41 36 37 ar
42 37 38 ar
43 19 39 ar
44 17 40 1
45 39 41 1
@<TRIPOS>SUBSTRUCTURE
1	RES1	1	GROUP	1 ****	RES
