# created with PyMOL 2.5.2
@<TRIPOS>MOLECULE
PARP1_4RV6_TargetProtein
25 28 1                 
SMALL
USER_CHARGES
@<TRIPOS>ATOM
1	  N5	86.633	-2.980	122.266	N.3	1	RES1	0.000	
2	  N6	94.654	2.216	122.483	N.pl3	1	RES1	0.000	
3	  N7	91.322	1.776	118.680	N.2	1	RES1	0.000	
4	  O8	95.574	4.178	121.859	O.2	1	RES1	0.000	
5	 C30	85.485	-3.904	122.448	C.3	1	RES1	0.000	
6	 C31	87.870	-3.630	122.614	C.3	1	RES1	0.000	
7	 C32	86.697	-2.494	120.851	C.3	1	RES1	0.000	
8	 C33	87.844	-1.501	120.622	C.2	1	RES1	0.000	
9	 C34	88.634	-1.055	121.675	C.2	1	RES1	0.000	
10	 C35	89.699	-0.176	121.460	C.2	1	RES1	0.000	
11	 C36	89.970	0.282	120.168	C.2	1	RES1	0.000	
12	 C37	91.134	1.173	119.925	C.2	1	RES1	0.000	
13	 C38	92.215	1.564	120.697	C.2	1	RES1	0.000	
14	 C39	92.508	1.073	122.097	C.3	1	RES1	0.000	
15	 C40	94.000	0.942	122.311	C.3	1	RES1	0.000	
16	 C41	94.870	3.243	121.573	C.2	1	RES1	0.000	
17	 C42	94.200	3.198	120.234	C.2	1	RES1	0.000	
18	 C43	93.023	2.461	119.962	C.2	1	RES1	0.000	
19	 C44	92.455	2.572	118.710	C.2	1	RES1	0.000	
20	 C45	92.961	3.336	117.669	C.2	1	RES1	0.000	
21	 C46	94.101	4.064	117.986	C.2	1	RES1	0.000	
22	 C47	94.708	4.009	119.217	C.2	1	RES1	0.000	
23	 C48	89.189	-0.177	119.108	C.2	1	RES1	0.000	
24	 C49	88.139	-1.057	119.339	C.2	1	RES1	0.000	
25	  F1	94.657	4.854	117.027	 F	1	RES1	0.000	
@<TRIPOS>BOND
1 1 5 1
2 1 6 1
3 1 7 1
4 7 8 1
5 8 9 ar
6 8 24 ar
7 9 10 ar
8 10 11 ar
9 11 12 1
10 11 23 ar
11 3 12 ar
12 12 13 ar
13 13 14 1
14 13 18 ar
15 14 15 1
16 2 15 1
17 2 16 1
18 4 16 2
19 16 17 1
20 17 18 ar
21 17 22 ar
22 18 19 ar
23 3 19 ar
24 19 20 ar
25 20 21 ar
26 21 22 ar
27 23 24 ar
28 21 25 1
@<TRIPOS>SUBSTRUCTURE
1	RES1	1	GROUP	1 ****	RES
