# created with PyMOL 2.5.2
@<TRIPOS>MOLECULE
PARP1_4RV6_TargetProtein
25 28 1                 
SMALL
USER_CHARGES
@<TRIPOS>ATOM
1	  N5	86.717	-3.046	122.217	N.3	1	RES1	0.000	
2	  N6	94.659	2.252	122.512	N.pl3	1	RES1	0.000	
3	  N7	91.332	1.749	118.703	N.2	1	RES1	0.000	
4	  O9	95.562	4.225	121.856	O.2	1	RES1	0.000	
5	 C32	85.545	-3.930	122.414	C.3	1	RES1	0.000	
6	 C33	86.724	-1.999	123.252	C.3	1	RES1	0.000	
7	 C34	86.660	-2.446	120.861	C.3	1	RES1	0.000	
8	 C35	87.818	-1.486	120.602	C.2	1	RES1	0.000	
9	 C36	88.008	-0.893	119.361	C.2	1	RES1	0.000	
10	 C37	89.097	-0.022	119.144	C.2	1	RES1	0.000	
11	 C38	89.967	0.311	120.181	C.2	1	RES1	0.000	
12	 C39	91.129	1.180	119.943	C.2	1	RES1	0.000	
13	 C40	92.206	1.551	120.732	C.2	1	RES1	0.000	
14	 C41	92.500	1.102	122.113	C.3	1	RES1	0.000	
15	 C42	93.996	0.984	122.371	C.3	1	RES1	0.000	
16	 C43	94.828	3.244	121.567	C.2	1	RES1	0.000	
17	 C44	94.208	3.197	120.239	C.2	1	RES1	0.000	
18	 C45	93.010	2.465	119.980	C.2	1	RES1	0.000	
19	 C46	92.458	2.534	118.678	C.2	1	RES1	0.000	
20	 C47	92.985	3.312	117.649	C.2	1	RES1	0.000	
21	 C48	94.125	4.003	117.957	C.2	1	RES1	0.000	
22	 C49	94.718	3.974	119.199	C.2	1	RES1	0.000	
23	 C50	89.761	-0.290	121.440	C.2	1	RES1	0.000	
24	 C51	88.712	-1.171	121.658	C.2	1	RES1	0.000	
25	  F1	94.671	4.795	116.985	 F	1	RES1	0.000	
@<TRIPOS>BOND
1 1 5 1
2 1 6 1
3 1 7 1
4 7 8 1
5 8 9 ar
6 8 24 ar
7 9 10 ar
8 10 11 ar
9 11 12 1
10 11 23 ar
11 3 12 ar
12 12 13 ar
13 13 14 1
14 13 18 ar
15 14 15 1
16 2 15 1
17 2 16 1
18 4 16 2
19 16 17 1
20 17 18 ar
21 17 22 ar
22 18 19 ar
23 3 19 ar
24 19 20 ar
25 20 21 ar
26 21 22 ar
27 23 24 ar
28 21 25 1
@<TRIPOS>SUBSTRUCTURE
1	RES1	1	GROUP	1 ****	RES
