# created with PyMOL 2.5.2
@<TRIPOS>MOLECULE
BTK_5P9J_TargetProtein
34 38 1                 
SMALL
USER_CHARGES
@<TRIPOS>ATOM
1	  N5	24.685	13.075	-0.530	N.3	1	RES1	0.000	
2	  N6	23.569	9.237	0.433	N.3	1	RES1	0.000	
3	  N7	21.193	6.694	1.912	N.2	1	RES1	0.000	
4	  N8	20.944	6.791	3.252	N.2	1	RES1	0.000	
5	  N9	16.956	4.794	2.412	N.pl3	1	RES1	0.000	
6	 N10	17.986	4.884	0.320	N.2	1	RES1	0.000	
7	 N11	20.152	5.876	-0.120	N.2	1	RES1	0.000	
8	 O11	22.691	9.646	-1.693	O.3	1	RES1	0.000	
9	 O12	17.490	5.746	8.532	O.3	1	RES1	0.000	
10	 C34	24.820	10.582	-1.250	C.3	1	RES1	0.000	
11	 C35	24.754	11.966	-0.837	C.3	1	RES1	0.000	
12	 C36	23.615	9.789	-0.886	C.3	1	RES1	0.000	
13	 C37	24.673	9.146	1.356	C.3	1	RES1	0.000	
14	 C38	24.884	7.686	1.798	C.3	1	RES1	0.000	
15	 C39	23.605	7.107	2.370	C.3	1	RES1	0.000	
16	 C40	22.457	7.250	1.375	C.3	1	RES1	0.000	
17	 C41	19.751	6.163	3.380	C.2	1	RES1	0.000	
18	 C42	19.179	6.059	4.708	C.2	1	RES1	0.000	
19	 C43	19.062	7.180	5.560	C.2	1	RES1	0.000	
20	 C44	18.499	7.051	6.834	C.2	1	RES1	0.000	
21	 C45	18.060	5.796	7.266	C.2	1	RES1	0.000	
22	 C46	16.553	6.759	8.881	C.2	1	RES1	0.000	
23	 C47	15.691	7.303	7.931	C.2	1	RES1	0.000	
24	 C48	14.791	8.292	8.329	C.2	1	RES1	0.000	
25	 C49	14.738	8.688	9.648	C.2	1	RES1	0.000	
26	 C50	15.563	8.103	10.613	C.2	1	RES1	0.000	
27	 C51	16.487	7.121	10.189	C.2	1	RES1	0.000	
28	 C52	18.153	4.689	6.438	C.2	1	RES1	0.000	
29	 C53	18.702	4.809	5.169	C.2	1	RES1	0.000	
30	 C54	19.220	5.758	2.131	C.2	1	RES1	0.000	
31	 C55	18.062	5.145	1.636	C.2	1	RES1	0.000	
32	 C56	19.005	5.248	-0.471	C.2	1	RES1	0.000	
33	 C57	20.187	6.094	1.209	C.2	1	RES1	0.000	
34	 C58	22.288	8.703	0.928	C.3	1	RES1	0.000	
@<TRIPOS>BOND
1 3 4 ar
2 6 31 ar
3 6 32 ar
4 7 32 ar
5 7 33 ar
6 8 12 1
7 9 21 1
8 9 22 1
9 10 11 1
10 10 12 1
11 1 11 1
12 2 12 1
13 2 13 1
14 13 14 1
15 14 15 1
16 15 16 1
17 3 16 1
18 16 34 1
19 4 17 ar
20 17 18 1
21 17 30 ar
22 18 19 ar
23 18 29 ar
24 19 20 ar
25 20 21 ar
26 21 28 ar
27 22 23 ar
28 22 27 ar
29 23 24 ar
30 24 25 ar
31 25 26 ar
32 26 27 ar
33 28 29 ar
34 30 31 ar
35 30 33 ar
36 5 31 1
37 3 33 ar
38 2 34 1
@<TRIPOS>SUBSTRUCTURE
1	RES1	1	GROUP	1 ****	RES
