# created with PyMOL 2.5.2
@<TRIPOS>MOLECULE
BTK_5P9J_TargetProtein
34 38 1                 
SMALL
USER_CHARGES
@<TRIPOS>ATOM
1	  N5	24.632	13.245	-0.609	N.3	1	RES1	0.000	
2	  N6	23.538	9.199	0.354	N.pl3	1	RES1	0.000	
3	  N7	21.167	6.646	1.863	N.2	1	RES1	0.000	
4	  N8	20.965	6.711	3.207	N.2	1	RES1	0.000	
5	  N9	17.060	4.555	2.430	N.pl3	1	RES1	0.000	
6	  O9	22.877	9.797	-1.786	O.2	1	RES1	0.000	
7	 N10	17.986	4.847	0.295	N.2	1	RES1	0.000	
8	 O10	17.456	5.796	8.508	O.3	1	RES1	0.000	
9	 N11	20.097	5.887	-0.150	N.2	1	RES1	0.000	
10	 C30	24.968	10.693	-1.060	C.3	1	RES1	0.000	
11	 C31	24.756	12.109	-0.796	C.3	1	RES1	0.000	
12	 C32	23.699	9.849	-0.868	C.2	1	RES1	0.000	
13	 C33	24.629	9.111	1.258	C.3	1	RES1	0.000	
14	 C34	24.864	7.668	1.727	C.3	1	RES1	0.000	
15	 C35	23.589	7.054	2.310	C.3	1	RES1	0.000	
16	 C36	22.437	7.210	1.307	C.3	1	RES1	0.000	
17	 C37	19.736	6.117	3.368	C.2	1	RES1	0.000	
18	 C38	19.164	6.045	4.696	C.2	1	RES1	0.000	
19	 C39	19.052	7.205	5.474	C.2	1	RES1	0.000	
20	 C40	18.475	7.122	6.751	C.2	1	RES1	0.000	
21	 C41	18.006	5.920	7.233	C.2	1	RES1	0.000	
22	 C42	16.532	6.772	8.911	C.2	1	RES1	0.000	
23	 C43	15.497	7.255	8.066	C.2	1	RES1	0.000	
24	 C44	14.611	8.198	8.538	C.2	1	RES1	0.000	
25	 C45	14.732	8.688	9.846	C.2	1	RES1	0.000	
26	 C46	15.747	8.190	10.684	C.2	1	RES1	0.000	
27	 C47	16.622	7.251	10.209	C.2	1	RES1	0.000	
28	 C48	18.120	4.750	6.452	C.2	1	RES1	0.000	
29	 C49	18.719	4.834	5.216	C.2	1	RES1	0.000	
30	 C50	19.210	5.676	2.120	C.2	1	RES1	0.000	
31	 C51	18.080	5.024	1.647	C.2	1	RES1	0.000	
32	 C52	18.958	5.255	-0.506	C.2	1	RES1	0.000	
33	 C53	20.168	6.064	1.185	C.2	1	RES1	0.000	
34	 C54	22.267	8.657	0.867	C.3	1	RES1	0.000	
@<TRIPOS>BOND
1 3 4 ar
2 7 31 ar
3 7 32 ar
4 8 21 1
5 8 22 1
6 9 32 ar
7 9 33 ar
8 10 11 1
9 10 12 1
10 1 11 1
11 2 12 1
12 6 12 2
13 2 13 1
14 13 14 1
15 14 15 1
16 15 16 1
17 3 16 1
18 16 34 1
19 4 17 ar
20 17 18 1
21 17 30 ar
22 18 19 ar
23 18 29 ar
24 19 20 ar
25 20 21 ar
26 21 28 ar
27 22 23 ar
28 22 27 ar
29 23 24 ar
30 24 25 ar
31 25 26 ar
32 26 27 ar
33 28 29 ar
34 30 31 ar
35 30 33 ar
36 5 31 1
37 3 33 ar
38 2 34 1
@<TRIPOS>SUBSTRUCTURE
1	RES1	1	GROUP	1 ****	RES
