# created with PyMOL 2.5.2
@<TRIPOS>MOLECULE
BTK_5P9J_TargetProtein
34 38 1                 
SMALL
USER_CHARGES
@<TRIPOS>ATOM
1	  N5	24.611	13.137	-0.466	N.3	1	RES1	0.000	
2	  N6	23.545	9.214	0.418	N.pl3	1	RES1	0.000	
3	  N7	21.180	6.681	1.911	N.2	1	RES1	0.000	
4	  N8	20.940	6.770	3.237	N.2	1	RES1	0.000	
5	  O8	22.725	9.648	-1.674	O.2	1	RES1	0.000	
6	  N9	16.955	4.787	2.407	N.pl3	1	RES1	0.000	
7	  O9	17.483	5.719	8.540	O.3	1	RES1	0.000	
8	 N10	17.978	4.875	0.306	N.2	1	RES1	0.000	
9	 N11	20.146	5.875	-0.121	N.2	1	RES1	0.000	
10	 C28	24.828	10.611	-1.193	C.3	1	RES1	0.000	
11	 C29	24.670	12.034	-0.782	C.3	1	RES1	0.000	
12	 C30	23.599	9.792	-0.867	C.2	1	RES1	0.000	
13	 C31	24.662	9.122	1.365	C.3	1	RES1	0.000	
14	 C32	24.879	7.694	1.830	C.3	1	RES1	0.000	
15	 C33	23.594	7.092	2.392	C.3	1	RES1	0.000	
16	 C34	22.443	7.244	1.380	C.3	1	RES1	0.000	
17	 C35	19.747	6.177	3.393	C.2	1	RES1	0.000	
18	 C36	19.158	6.028	4.688	C.2	1	RES1	0.000	
19	 C37	18.993	7.174	5.518	C.2	1	RES1	0.000	
20	 C38	18.430	7.040	6.794	C.2	1	RES1	0.000	
21	 C39	18.003	5.778	7.251	C.2	1	RES1	0.000	
22	 C40	16.554	6.719	8.891	C.2	1	RES1	0.000	
23	 C41	15.551	7.126	8.016	C.2	1	RES1	0.000	
24	 C42	14.672	8.162	8.379	C.2	1	RES1	0.000	
25	 C43	14.841	8.761	9.672	C.2	1	RES1	0.000	
26	 C44	15.837	8.325	10.528	C.2	1	RES1	0.000	
27	 C45	16.710	7.324	10.127	C.2	1	RES1	0.000	
28	 C46	18.193	4.672	6.437	C.2	1	RES1	0.000	
29	 C47	18.753	4.801	5.157	C.2	1	RES1	0.000	
30	 C48	19.216	5.748	2.121	C.2	1	RES1	0.000	
31	 C49	18.027	5.127	1.609	C.2	1	RES1	0.000	
32	 C50	19.009	5.253	-0.494	C.2	1	RES1	0.000	
33	 C51	20.184	6.088	1.198	C.2	1	RES1	0.000	
34	 C52	22.279	8.696	0.917	C.3	1	RES1	0.000	
@<TRIPOS>BOND
1 3 4 ar
2 8 31 ar
3 8 32 ar
4 9 32 ar
5 9 33 ar
6 10 11 1
7 10 12 1
8 1 11 1
9 2 12 1
10 5 12 2
11 2 13 1
12 13 14 1
13 14 15 1
14 15 16 1
15 3 16 1
16 16 34 1
17 4 17 ar
18 17 18 1
19 17 30 ar
20 18 19 ar
21 18 29 ar
22 19 20 ar
23 20 21 ar
24 7 21 1
25 21 28 ar
26 7 22 1
27 22 23 ar
28 22 27 ar
29 23 24 ar
30 24 25 ar
31 25 26 ar
32 26 27 ar
33 28 29 ar
34 30 31 ar
35 30 33 ar
36 6 31 1
37 3 33 ar
38 2 34 1
@<TRIPOS>SUBSTRUCTURE
1	RES1	1	GROUP	1 ****	RES
