# created with PyMOL 2.5.2
@<TRIPOS>MOLECULE
BTK_5P9J_TargetProtein
34 38 1                 
SMALL
USER_CHARGES
@<TRIPOS>ATOM
1	  N5	24.692	13.112	-0.528	N.3	1	RES1	0.000	
2	  N6	23.564	9.233	0.400	N.3	1	RES1	0.000	
3	  N7	21.215	6.702	1.901	N.2	1	RES1	0.000	
4	  O7	22.705	9.635	-1.671	O.3	1	RES1	0.000	
5	  N8	20.966	6.776	3.223	N.2	1	RES1	0.000	
6	  O8	17.483	5.764	8.536	O.3	1	RES1	0.000	
7	  N9	16.955	4.802	2.416	N.pl3	1	RES1	0.000	
8	 N10	17.988	4.902	0.325	N.2	1	RES1	0.000	
9	 N11	20.142	5.860	-0.132	N.2	1	RES1	0.000	
10	 C26	24.832	10.592	-1.248	C.3	1	RES1	0.000	
11	 C27	24.742	11.987	-0.824	C.3	1	RES1	0.000	
12	 C28	23.599	9.794	-0.889	C.3	1	RES1	0.000	
13	 C29	24.718	9.120	1.336	C.3	1	RES1	0.000	
14	 C30	24.908	7.702	1.791	C.3	1	RES1	0.000	
15	 C31	23.614	7.080	2.354	C.3	1	RES1	0.000	
16	 C32	22.450	7.240	1.369	C.3	1	RES1	0.000	
17	 C33	19.774	6.185	3.382	C.2	1	RES1	0.000	
18	 C34	19.162	6.077	4.723	C.2	1	RES1	0.000	
19	 C35	19.037	7.181	5.550	C.2	1	RES1	0.000	
20	 C36	18.487	7.056	6.806	C.2	1	RES1	0.000	
21	 C37	18.051	5.823	7.273	C.2	1	RES1	0.000	
22	 C38	16.555	6.756	8.883	C.2	1	RES1	0.000	
23	 C39	15.676	7.316	7.944	C.2	1	RES1	0.000	
24	 C40	14.767	8.276	8.343	C.2	1	RES1	0.000	
25	 C41	14.712	8.669	9.693	C.2	1	RES1	0.000	
26	 C42	15.548	8.085	10.613	C.2	1	RES1	0.000	
27	 C43	16.480	7.119	10.217	C.2	1	RES1	0.000	
28	 C44	18.162	4.688	6.475	C.2	1	RES1	0.000	
29	 C45	18.718	4.806	5.172	C.2	1	RES1	0.000	
30	 C46	19.236	5.762	2.137	C.2	1	RES1	0.000	
31	 C47	18.056	5.134	1.627	C.2	1	RES1	0.000	
32	 C48	19.011	5.257	-0.481	C.2	1	RES1	0.000	
33	 C49	20.176	6.107	1.202	C.2	1	RES1	0.000	
34	 C50	22.294	8.669	0.905	C.3	1	RES1	0.000	
@<TRIPOS>BOND
1 3 5 ar
2 8 31 ar
3 8 32 ar
4 9 32 ar
5 9 33 ar
6 10 11 1
7 10 12 1
8 1 11 1
9 2 12 1
10 4 12 1
11 2 13 1
12 13 14 1
13 14 15 1
14 15 16 1
15 3 16 1
16 16 34 1
17 5 17 ar
18 17 18 1
19 17 30 ar
20 18 19 ar
21 18 29 ar
22 19 20 ar
23 20 21 ar
24 6 21 1
25 21 28 ar
26 6 22 1
27 22 23 ar
28 22 27 ar
29 23 24 ar
30 24 25 ar
31 25 26 ar
32 26 27 ar
33 28 29 ar
34 30 31 ar
35 30 33 ar
36 7 31 1
37 3 33 ar
38 2 34 1
@<TRIPOS>SUBSTRUCTURE
1	RES1	1	GROUP	1 ****	RES
