# created with PyMOL 2.5.2
@<TRIPOS>MOLECULE
CDK6_2EUF_TargetProtein
33 37 1                 
SMALL
USER_CHARGES
@<TRIPOS>ATOM
1	  C1	34.653	27.656	59.430	C.3	1	RES1	0.000	
2	  N1	31.414	22.939	63.596	N.2	1	RES1	0.000	
3	  O1	32.601	28.693	60.047	O.2	1	RES1	0.000	
4	  C2	33.239	27.675	59.972	C.2	1	RES1	0.000	
5	  N2	30.253	21.018	62.806	N.pl3	1	RES1	0.000	
6	  C3	32.622	26.340	60.343	C.2	1	RES1	0.000	
7	  N3	27.832	16.944	59.680	N.pl3	1	RES1	0.000	
8	  C4	32.687	25.952	61.626	C.2	1	RES1	0.000	
9	  N4	26.825	14.845	57.981	N.3	1	RES1	0.000	
10	  C5	33.358	26.711	62.740	C.3	1	RES1	0.000	
11	  C6	32.052	24.633	61.970	C.2	1	RES1	0.000	
12	  C7	31.976	24.120	63.270	C.2	1	RES1	0.000	
13	  C8	30.841	22.229	62.601	C.2	1	RES1	0.000	
14	  C9	29.676	20.054	61.961	C.2	1	RES1	0.000	
15	 C10	29.306	20.294	60.640	C.2	1	RES1	0.000	
16	 O10	31.989	25.960	58.133	O.2	1	RES1	0.000	
17	 C11	28.702	19.288	59.885	C.2	1	RES1	0.000	
18	 C12	28.450	18.033	60.428	C.2	1	RES1	0.000	
19	 N12	29.402	18.850	62.530	N.2	1	RES1	0.000	
20	 C13	28.592	15.668	59.570	C.3	1	RES1	0.000	
21	 N13	30.887	22.666	61.311	N.2	1	RES1	0.000	
22	 C14	27.664	14.517	59.156	C.3	1	RES1	0.000	
23	 N14	31.399	24.314	59.636	N.2	1	RES1	0.000	
24	 C49	26.022	16.046	58.240	C.3	1	RES1	0.000	
25	 C50	26.877	17.256	58.604	C.3	1	RES1	0.000	
26	 C51	28.848	17.887	61.763	C.2	1	RES1	0.000	
27	 C52	31.430	23.856	61.021	C.2	1	RES1	0.000	
28	 C53	30.787	23.450	58.590	C.3	1	RES1	0.000	
29	 C54	29.852	24.181	57.617	C.3	1	RES1	0.000	
30	 C55	28.582	23.317	57.551	C.3	1	RES1	0.000	
31	 C56	29.041	21.941	57.984	C.3	1	RES1	0.000	
32	 C57	30.042	22.220	59.072	C.3	1	RES1	0.000	
33	 C58	31.996	25.508	59.266	C.2	1	RES1	0.000	
@<TRIPOS>BOND
1 1 4 1
2 2 12 ar
3 2 13 ar
4 3 4 2
5 4 6 1
6 5 13 1
7 5 14 1
8 6 8 ar
9 6 33 ar
10 7 25 1
11 8 10 1
12 8 11 ar
13 9 24 1
14 11 12 ar
15 14 15 ar
16 15 17 ar
17 16 33 2
18 17 18 ar
19 7 18 1
20 18 26 ar
21 14 19 ar
22 19 26 ar
23 7 20 1
24 20 22 1
25 13 21 ar
26 21 27 ar
27 9 22 1
28 23 27 ar
29 23 28 1
30 23 33 ar
31 24 25 1
32 11 27 ar
33 28 29 1
34 28 32 1
35 29 30 1
36 30 31 1
37 31 32 1
@<TRIPOS>SUBSTRUCTURE
1	RES1	1	GROUP	1 ****	RES
