# created with PyMOL 2.5.2
@<TRIPOS>MOLECULE
ALK_4MKC_TargetProtein
38 41 1                 
SMALL
USER_CHARGES
@<TRIPOS>ATOM
1	 CL1	-21.228	15.024	-10.683	Cl	1	RES1	0.000	
2	  C1	-19.936	7.064	-7.076	C.3	1	RES1	0.000	
3	  N1	-23.564	9.956	-8.932	N.pl3	1	RES1	0.000	
4	  O1	-15.897	14.536	-7.987	O.2	1	RES1	0.000	
5	  S1	-17.033	13.920	-8.621	S.O2	1	RES1	0.000	
6	  C2	-21.405	7.390	-7.186	C.2	1	RES1	0.000	
7	  N2	-23.594	11.851	-10.288	N.2	1	RES1	0.000	
8	  O2	-18.051	14.742	-9.272	O.2	1	RES1	0.000	
9	  C3	-21.805	8.482	-7.960	C.2	1	RES1	0.000	
10	  N3	-20.075	13.197	-8.516	N.pl3	1	RES1	0.000	
11	  O3	-25.442	8.532	-7.660	O.3	1	RES1	0.000	
12	  C4	-23.153	8.841	-8.129	C.2	1	RES1	0.000	
13	  N4	-21.830	11.575	-8.730	N.2	1	RES1	0.000	
14	  C5	-22.979	11.153	-9.297	C.2	1	RES1	0.000	
15	  N5	-22.632	2.841	-4.426	N.3	1	RES1	0.000	
16	  C6	-23.022	13.005	-10.687	C.2	1	RES1	0.000	
17	  C7	-21.864	13.499	-10.128	C.2	1	RES1	0.000	
18	  C8	-21.254	12.763	-9.117	C.2	1	RES1	0.000	
19	  C9	-19.254	12.648	-7.492	C.2	1	RES1	0.000	
20	 C10	-19.823	11.858	-6.480	C.2	1	RES1	0.000	
21	 C11	-19.064	11.342	-5.454	C.2	1	RES1	0.000	
22	 C12	-17.712	11.598	-5.373	C.2	1	RES1	0.000	
23	 C13	-17.104	12.396	-6.337	C.2	1	RES1	0.000	
24	 C14	-17.893	12.912	-7.410	C.2	1	RES1	0.000	
25	 C15	-16.438	12.767	-9.848	C.3	1	RES1	0.000	
26	 C16	-17.571	11.935	-10.441	C.3	1	RES1	0.000	
27	 C17	-15.349	11.834	-9.266	C.3	1	RES1	0.000	
28	 C18	-24.124	8.093	-7.464	C.2	1	RES1	0.000	
29	 C19	-26.548	7.730	-7.104	C.3	1	RES1	0.000	
30	 C20	-26.719	6.538	-8.023	C.3	1	RES1	0.000	
31	 C21	-27.806	8.579	-7.053	C.3	1	RES1	0.000	
32	 C22	-23.736	6.991	-6.669	C.2	1	RES1	0.000	
33	 C23	-22.389	6.620	-6.539	C.2	1	RES1	0.000	
34	 C24	-22.027	5.408	-5.656	C.3	1	RES1	0.000	
35	 C25	-21.993	4.106	-6.471	C.3	1	RES1	0.000	
36	 C26	-21.710	2.902	-5.559	C.3	1	RES1	0.000	
37	 C56	-22.629	4.034	-3.619	C.3	1	RES1	0.000	
38	 C57	-22.990	5.265	-4.448	C.3	1	RES1	0.000	
@<TRIPOS>BOND
1 1 17 1
2 2 6 1
3 3 12 1
4 3 14 1
5 4 5 2
6 5 8 2
7 5 24 1
8 5 25 1
9 6 9 ar
10 6 33 ar
11 7 14 ar
12 7 16 ar
13 9 12 ar
14 10 18 1
15 10 19 1
16 13 14 ar
17 13 18 ar
18 15 37 1
19 16 17 ar
20 17 18 ar
21 19 20 ar
22 20 21 ar
23 21 22 ar
24 22 23 ar
25 23 24 ar
26 19 24 ar
27 25 26 1
28 25 27 1
29 11 28 1
30 12 28 ar
31 28 32 ar
32 11 29 1
33 29 30 1
34 29 31 1
35 32 33 ar
36 33 34 1
37 34 35 1
38 34 38 1
39 35 36 1
40 15 36 1
41 37 38 1
@<TRIPOS>SUBSTRUCTURE
1	RES1	1	GROUP	1 ****	RES
