# created with PyMOL 2.5.2
@<TRIPOS>MOLECULE
ALK_4MKC_TargetProtein
38 41 1                 
SMALL
USER_CHARGES
@<TRIPOS>ATOM
1	 CL1	-21.237	14.997	-10.654	Cl	1	RES1	0.000	
2	  C1	-19.973	7.021	-7.046	C.3	1	RES1	0.000	
3	  N1	-23.568	9.922	-8.922	N.pl3	1	RES1	0.000	
4	  O1	-18.064	14.642	-9.331	O.2	1	RES1	0.000	
5	  S1	-17.078	13.739	-8.704	S.O2	1	RES1	0.000	
6	  C2	-21.431	7.365	-7.134	C.2	1	RES1	0.000	
7	  N2	-23.546	11.779	-10.311	N.2	1	RES1	0.000	
8	  O2	-15.849	14.303	-8.171	O.2	1	RES1	0.000	
9	  C3	-21.840	8.446	-7.950	C.2	1	RES1	0.000	
10	  N3	-20.112	13.261	-8.400	N.pl3	1	RES1	0.000	
11	  O3	-25.444	8.499	-7.650	O.3	1	RES1	0.000	
12	  C4	-23.146	8.831	-8.097	C.2	1	RES1	0.000	
13	  N4	-21.851	11.606	-8.651	N.2	1	RES1	0.000	
14	  C5	-22.968	11.145	-9.281	C.2	1	RES1	0.000	
15	  N5	-22.661	2.768	-4.451	N.3	1	RES1	0.000	
16	  C6	-22.998	12.964	-10.681	C.2	1	RES1	0.000	
17	  C7	-21.875	13.496	-10.090	C.2	1	RES1	0.000	
18	  C8	-21.289	12.778	-9.029	C.2	1	RES1	0.000	
19	  C9	-19.327	12.767	-7.338	C.2	1	RES1	0.000	
20	 C10	-19.902	12.027	-6.291	C.2	1	RES1	0.000	
21	 C11	-19.110	11.529	-5.244	C.2	1	RES1	0.000	
22	 C12	-17.728	11.756	-5.233	C.2	1	RES1	0.000	
23	 C13	-17.137	12.431	-6.269	C.2	1	RES1	0.000	
24	 C14	-17.934	12.915	-7.329	C.2	1	RES1	0.000	
25	 C15	-16.673	12.427	-9.847	C.3	1	RES1	0.000	
26	 C16	-15.486	11.595	-9.401	C.3	1	RES1	0.000	
27	 C17	-16.454	13.015	-11.243	C.3	1	RES1	0.000	
28	 C18	-24.123	8.070	-7.439	C.2	1	RES1	0.000	
29	 C19	-26.553	7.701	-7.151	C.3	1	RES1	0.000	
30	 C20	-26.781	6.489	-8.059	C.3	1	RES1	0.000	
31	 C21	-27.765	8.584	-7.125	C.3	1	RES1	0.000	
32	 C22	-23.765	6.969	-6.676	C.2	1	RES1	0.000	
33	 C23	-22.438	6.578	-6.508	C.2	1	RES1	0.000	
34	 C24	-22.090	5.362	-5.632	C.3	1	RES1	0.000	
35	 C25	-22.030	4.069	-6.440	C.3	1	RES1	0.000	
36	 C26	-21.702	2.877	-5.568	C.3	1	RES1	0.000	
37	 C55	-22.670	3.987	-3.618	C.3	1	RES1	0.000	
38	 C56	-23.016	5.211	-4.431	C.3	1	RES1	0.000	
@<TRIPOS>BOND
1 1 17 1
2 2 6 1
3 3 12 1
4 3 14 1
5 4 5 2
6 5 8 2
7 5 24 1
8 5 25 1
9 6 9 ar
10 6 33 ar
11 7 14 ar
12 7 16 ar
13 9 12 ar
14 10 18 1
15 10 19 1
16 13 14 ar
17 13 18 ar
18 15 37 1
19 16 17 ar
20 17 18 ar
21 19 20 ar
22 20 21 ar
23 21 22 ar
24 22 23 ar
25 23 24 ar
26 19 24 ar
27 25 26 1
28 25 27 1
29 11 28 1
30 12 28 ar
31 28 32 ar
32 11 29 1
33 29 30 1
34 29 31 1
35 32 33 ar
36 33 34 1
37 34 35 1
38 34 38 1
39 35 36 1
40 15 36 1
41 37 38 1
@<TRIPOS>SUBSTRUCTURE
1	RES1	1	GROUP	1 ****	RES
