# created with PyMOL 2.5.2
@<TRIPOS>MOLECULE
BRD4_6YQN_TargetProtein
24 27 1                 
SMALL
USER_CHARGES
@<TRIPOS>ATOM
1	 CL1	25.718	17.897	-6.988	Cl	1	RES1	0.000	
2	  C1	26.046	15.087	1.273	C.3	1	RES1	0.000	
3	  N1	30.785	16.824	0.003	N.2	1	RES1	0.000	
4	  S1	28.497	16.318	1.368	S.2	1	RES1	0.000	
5	  C2	27.235	15.516	0.544	C.2	1	RES1	0.000	
6	  N2	32.717	17.761	0.546	N.2	1	RES1	0.000	
7	  C3	27.542	15.301	-0.838	C.2	1	RES1	0.000	
8	  N3	32.926	16.950	-0.514	N.2	1	RES1	0.000	
9	  C4	26.631	14.566	-1.744	C.3	1	RES1	0.000	
10	  C5	28.814	15.874	-1.205	C.2	1	RES1	0.000	
11	  C6	29.446	16.364	-0.072	C.2	1	RES1	0.000	
12	  C7	31.425	17.690	0.883	C.2	1	RES1	0.000	
13	  C8	30.807	18.516	1.938	C.3	1	RES1	0.000	
14	  N8	30.567	15.765	-2.876	N.2	1	RES1	0.000	
15	  C9	31.777	16.394	-0.840	C.2	1	RES1	0.000	
16	 C10	31.544	15.328	-1.866	C.3	1	RES1	0.000	
17	 C11	32.837	14.940	-2.591	C.3	1	RES1	0.000	
18	 C32	29.314	16.027	-2.555	C.2	1	RES1	0.000	
19	 C33	28.423	16.472	-3.644	C.2	1	RES1	0.000	
20	 C34	27.312	17.312	-3.360	C.2	1	RES1	0.000	
21	 C35	26.482	17.731	-4.394	C.2	1	RES1	0.000	
22	 C36	26.770	17.362	-5.700	C.2	1	RES1	0.000	
23	 C37	27.881	16.557	-6.002	C.2	1	RES1	0.000	
24	 C38	28.707	16.130	-4.973	C.2	1	RES1	0.000	
@<TRIPOS>BOND
1 1 22 1
2 2 5 1
3 3 11 1
4 3 12 ar
5 3 15 ar
6 4 5 ar
7 4 11 ar
8 5 7 ar
9 6 8 ar
10 6 12 ar
11 7 9 1
12 7 10 ar
13 8 15 ar
14 10 11 ar
15 12 13 1
16 14 16 1
17 15 16 1
18 16 17 1
19 10 18 1
20 14 18 2
21 18 19 1
22 19 20 ar
23 19 24 ar
24 20 21 ar
25 21 22 ar
26 22 23 ar
27 23 24 ar
@<TRIPOS>SUBSTRUCTURE
1	RES1	1	GROUP	1 ****	RES
