# created with PyMOL 2.5.2
@<TRIPOS>MOLECULE
BRD2_4ALH_TargetProtein
35 40 1                 
SMALL
USER_CHARGES
@<TRIPOS>ATOM
1	  C1	-2.398	9.016	26.498	C.3	1	RES1	0.000	
2	  N1	-1.866	8.465	24.167	N.2	1	RES1	0.000	
3	  O1	4.908	6.892	26.774	O.2	1	RES1	0.000	
4	  C2	-2.605	8.049	25.360	C.3	1	RES1	0.000	
5	  N2	-2.516	9.042	23.143	N.2	1	RES1	0.000	
6	  C3	-1.562	9.225	22.229	C.2	1	RES1	0.000	
7	  N3	0.351	7.696	24.867	N.pl3	1	RES1	0.000	
8	  C4	-1.870	9.887	20.868	C.3	1	RES1	0.000	
9	  N4	2.500	6.825	25.367	N.2	1	RES1	0.000	
10	  C5	-2.925	10.967	20.802	C.3	1	RES1	0.000	
11	  C6	-3.215	9.630	20.219	C.3	1	RES1	0.000	
12	  C7	-0.313	8.786	22.648	C.2	1	RES1	0.000	
13	  O7	-3.095	5.330	21.060	O.3	1	RES1	0.000	
14	  C8	-0.504	8.272	23.933	C.2	1	RES1	0.000	
15	  N8	3.477	4.917	24.231	N.2	1	RES1	0.000	
16	  O8	-2.429	2.222	17.776	O.2	1	RES1	0.000	
17	  C9	1.357	6.757	24.655	C.2	1	RES1	0.000	
18	  N9	-3.509	1.920	18.623	N.2	1	RES1	0.000	
19	 C10	3.492	5.923	25.125	C.2	1	RES1	0.000	
20	 N10	2.029	3.965	22.610	N.2	1	RES1	0.000	
21	 C11	4.737	6.031	25.912	C.2	1	RES1	0.000	
22	 C32	2.296	4.883	23.550	C.2	1	RES1	0.000	
23	 C33	1.225	5.729	23.695	C.2	1	RES1	0.000	
24	 C34	0.219	5.296	22.770	C.2	1	RES1	0.000	
25	 C35	-1.072	5.676	22.432	C.2	1	RES1	0.000	
26	 C36	-1.791	4.964	21.453	C.2	1	RES1	0.000	
27	 C37	-3.767	6.326	21.815	C.3	1	RES1	0.000	
28	 C38	-1.224	3.890	20.803	C.2	1	RES1	0.000	
29	 C39	-1.943	3.129	19.773	C.2	1	RES1	0.000	
30	 C40	-1.500	2.968	18.480	C.2	1	RES1	0.000	
31	 C41	-0.308	3.394	17.720	C.3	1	RES1	0.000	
32	 C42	-3.194	2.455	19.824	C.2	1	RES1	0.000	
33	 C43	-4.133	2.321	20.948	C.3	1	RES1	0.000	
34	 C44	0.074	3.481	21.111	C.2	1	RES1	0.000	
35	 C45	0.780	4.172	22.101	C.2	1	RES1	0.000	
@<TRIPOS>BOND
1 1 4 1
2 2 4 1
3 2 5 ar
4 2 14 ar
5 3 21 2
6 5 6 ar
7 6 8 1
8 6 12 ar
9 7 14 1
10 7 17 1
11 8 10 1
12 8 11 1
13 9 17 ar
14 10 11 1
15 12 14 ar
16 16 18 ar
17 9 19 ar
18 15 19 ar
19 19 21 1
20 20 22 ar
21 20 35 ar
22 15 22 ar
23 22 23 ar
24 17 23 ar
25 23 24 ar
26 24 25 ar
27 24 35 ar
28 25 26 ar
29 13 26 1
30 26 28 ar
31 13 27 1
32 28 29 1
33 28 34 ar
34 29 30 ar
35 29 32 ar
36 16 30 ar
37 30 31 1
38 18 32 ar
39 32 33 1
40 34 35 ar
@<TRIPOS>SUBSTRUCTURE
1	RES1	1	GROUP	1 ****	RES
