# created with PyMOL 2.5.2
@<TRIPOS>MOLECULE
KRAS_5V9O_TargetProtein
41 45 1                 
SMALL
USER_CHARGES
@<TRIPOS>ATOM
1	 CL1	-3.938	-17.142	70.882	Cl	1	RES1	0.000	
2	  C1	3.552	-9.667	69.807	C.3	1	RES1	0.000	
3	  N1	0.946	-12.057	71.035	N.3	1	RES1	0.000	
4	  O1	1.637	-11.521	68.917	O.3	1	RES1	0.000	
5	  C2	2.380	-10.082	70.680	C.3	1	RES1	0.000	
6	  N2	0.164	-14.188	72.783	N.pl3	1	RES1	0.000	
7	  O2	4.726	-20.175	77.158	O.2	1	RES1	0.000	
8	  C3	1.626	-11.268	70.103	C.3	1	RES1	0.000	
9	  N3	0.940	-15.465	74.639	N.2	1	RES1	0.000	
10	  C4	0.081	-13.158	70.540	C.3	1	RES1	0.000	
11	  N4	1.810	-16.688	76.477	N.pl3	1	RES1	0.000	
12	  C5	0.267	-14.431	71.327	C.3	1	RES1	0.000	
13	  N5	4.570	-18.810	75.303	N.pl3	1	RES1	0.000	
14	  C6	0.085	-15.346	73.611	C.2	1	RES1	0.000	
15	  C7	0.899	-16.548	75.411	C.2	1	RES1	0.000	
16	  C8	2.088	-17.996	77.031	C.3	1	RES1	0.000	
17	  C9	3.574	-18.097	77.452	C.3	1	RES1	0.000	
18	 C10	4.335	-19.149	76.658	C.2	1	RES1	0.000	
19	 N10	0.073	-17.547	75.195	N.2	1	RES1	0.000	
20	 C11	4.113	-17.602	74.612	C.3	1	RES1	0.000	
21	 O11	-6.303	-21.221	74.790	O.3	1	RES1	0.000	
22	 C12	5.334	-19.755	74.462	C.3	1	RES1	0.000	
23	 C45	-0.835	-17.469	74.177	C.2	1	RES1	0.000	
24	 C46	-1.740	-18.486	73.955	C.2	1	RES1	0.000	
25	 C47	-2.718	-18.445	72.973	C.2	1	RES1	0.000	
26	 C48	-3.660	-19.583	72.796	C.2	1	RES1	0.000	
27	 C49	-4.529	-19.880	73.866	C.2	1	RES1	0.000	
28	 C50	-5.442	-20.916	73.737	C.2	1	RES1	0.000	
29	 C51	-5.531	-21.672	72.608	C.2	1	RES1	0.000	
30	 C52	-4.674	-21.401	71.544	C.2	1	RES1	0.000	
31	 C53	-4.747	-22.173	70.381	C.2	1	RES1	0.000	
32	 C54	-3.907	-21.931	69.279	C.2	1	RES1	0.000	
33	 C55	-2.980	-20.879	69.342	C.2	1	RES1	0.000	
34	 C56	-2.895	-20.097	70.509	C.2	1	RES1	0.000	
35	 C57	-3.745	-20.353	71.626	C.2	1	RES1	0.000	
36	 C58	-2.741	-17.294	72.161	C.2	1	RES1	0.000	
37	 C59	-1.849	-16.271	72.347	C.2	1	RES1	0.000	
38	 C60	-0.881	-16.347	73.340	C.2	1	RES1	0.000	
39	 C61	1.057	-13.093	73.278	C.3	1	RES1	0.000	
40	 C62	0.852	-11.827	72.475	C.3	1	RES1	0.000	
41	  F1	-1.710	-19.580	74.756	 F	1	RES1	0.000	
@<TRIPOS>BOND
1 1 36 1
2 2 5 1
3 3 8 1
4 3 10 1
5 3 40 1
6 4 8 1
7 5 8 1
8 6 12 1
9 6 14 1
10 6 39 1
11 9 14 ar
12 9 15 ar
13 10 12 1
14 11 15 1
15 11 16 1
16 14 38 ar
17 16 17 1
18 7 18 2
19 13 18 1
20 17 18 1
21 15 19 ar
22 19 23 ar
23 13 20 1
24 21 28 1
25 13 22 1
26 23 24 ar
27 23 38 ar
28 24 25 ar
29 25 26 1
30 25 36 ar
31 26 27 ar
32 26 35 ar
33 27 28 ar
34 28 29 ar
35 29 30 ar
36 30 31 ar
37 30 35 ar
38 31 32 ar
39 32 33 ar
40 33 34 ar
41 34 35 ar
42 36 37 ar
43 37 38 ar
44 39 40 1
45 24 41 1
@<TRIPOS>SUBSTRUCTURE
1	RES1	1	GROUP	1 ****	RES
