# created with PyMOL 2.5.2
@<TRIPOS>MOLECULE
BRD2_4A9H_TargetProtein
22 24 1                 
SMALL
USER_CHARGES
@<TRIPOS>ATOM
1	 CL1	24.142	16.508	-13.835	Cl	1	RES1	0.000	
2	  C1	18.715	9.213	-7.280	C.3	1	RES1	0.000	
3	  N1	19.675	9.384	-9.575	N.pl3	1	RES1	0.000	
4	  O1	20.897	8.522	-7.823	O.2	1	RES1	0.000	
5	  C2	19.869	8.996	-8.241	C.2	1	RES1	0.000	
6	  C3	18.494	9.938	-10.119	C.2	1	RES1	0.000	
7	  C4	17.221	9.420	-9.869	C.2	1	RES1	0.000	
8	  C5	16.078	10.045	-10.333	C.2	1	RES1	0.000	
9	  C6	16.187	11.184	-11.073	C.2	1	RES1	0.000	
10	  N7	20.017	12.389	-12.511	N.pl3	1	RES1	0.000	
11	 C42	17.453	11.702	-11.395	C.2	1	RES1	0.000	
12	 C43	18.601	11.081	-10.972	C.2	1	RES1	0.000	
13	 C44	20.020	11.536	-11.325	C.3	1	RES1	0.000	
14	 C45	21.035	13.352	-12.781	C.2	1	RES1	0.000	
15	 C46	22.132	13.619	-11.964	C.2	1	RES1	0.000	
16	 C47	23.090	14.593	-12.245	C.2	1	RES1	0.000	
17	 C48	22.953	15.294	-13.432	C.2	1	RES1	0.000	
18	 C49	21.877	15.073	-14.301	C.2	1	RES1	0.000	
19	 C50	20.933	14.124	-13.963	C.2	1	RES1	0.000	
20	 C51	20.801	10.271	-11.671	C.3	1	RES1	0.000	
21	 C52	20.844	9.261	-10.478	C.3	1	RES1	0.000	
22	 C53	21.041	7.844	-10.973	C.3	1	RES1	0.000	
@<TRIPOS>BOND
1 1 17 1
2 2 5 1
3 3 5 1
4 3 6 1
5 3 21 1
6 4 5 2
7 6 7 ar
8 6 12 ar
9 7 8 ar
10 8 9 ar
11 9 11 ar
12 11 12 ar
13 12 13 1
14 10 13 1
15 13 20 1
16 10 14 1
17 14 15 ar
18 14 19 ar
19 15 16 ar
20 16 17 ar
21 17 18 ar
22 18 19 ar
23 20 21 1
24 21 22 1
@<TRIPOS>SUBSTRUCTURE
1	RES1	1	GROUP	1 ****	RES
