# created with PyMOL 2.5.2
@<TRIPOS>MOLECULE
BRD2_4A9H_TargetProtein
22 24 1                 
SMALL
USER_CHARGES
@<TRIPOS>ATOM
1	 CL1	24.124	16.514	-13.842	Cl	1	RES1	0.000	
2	  C1	18.704	9.191	-7.261	C.3	1	RES1	0.000	
3	  N1	19.676	9.366	-9.582	N.pl3	1	RES1	0.000	
4	  O1	20.906	8.566	-7.805	O.2	1	RES1	0.000	
5	  C2	19.865	8.993	-8.236	C.2	1	RES1	0.000	
6	  C3	18.486	9.945	-10.130	C.2	1	RES1	0.000	
7	  C4	17.225	9.403	-9.862	C.2	1	RES1	0.000	
8	  C5	16.063	10.032	-10.328	C.2	1	RES1	0.000	
9	  C6	16.174	11.219	-11.087	C.2	1	RES1	0.000	
10	  N7	20.033	12.401	-12.508	N.pl3	1	RES1	0.000	
11	 C42	17.459	11.717	-11.391	C.2	1	RES1	0.000	
12	 C43	18.618	11.080	-10.957	C.2	1	RES1	0.000	
13	 C44	20.016	11.509	-11.333	C.3	1	RES1	0.000	
14	 C45	21.036	13.348	-12.811	C.2	1	RES1	0.000	
15	 C46	22.116	13.620	-11.933	C.2	1	RES1	0.000	
16	 C47	23.070	14.575	-12.277	C.2	1	RES1	0.000	
17	 C48	22.957	15.317	-13.470	C.2	1	RES1	0.000	
18	 C49	21.855	15.069	-14.304	C.2	1	RES1	0.000	
19	 C50	20.924	14.113	-13.976	C.2	1	RES1	0.000	
20	 C51	20.814	10.248	-11.674	C.3	1	RES1	0.000	
21	 C52	20.833	9.276	-10.475	C.3	1	RES1	0.000	
22	 C53	21.048	7.853	-11.003	C.3	1	RES1	0.000	
@<TRIPOS>BOND
1 1 17 1
2 2 5 1
3 3 5 1
4 3 6 1
5 3 21 1
6 4 5 2
7 6 7 ar
8 6 12 ar
9 7 8 ar
10 8 9 ar
11 9 11 ar
12 11 12 ar
13 12 13 1
14 10 13 1
15 13 20 1
16 10 14 1
17 14 15 ar
18 14 19 ar
19 15 16 ar
20 16 17 ar
21 17 18 ar
22 18 19 ar
23 20 21 1
24 21 22 1
@<TRIPOS>SUBSTRUCTURE
1	RES1	1	GROUP	1 ****	RES
