# created with PyMOL 2.5.2
@<TRIPOS>MOLECULE
BRD2_4A9H_TargetProtein
22 24 1                 
SMALL
USER_CHARGES
@<TRIPOS>ATOM
1	 CL1	24.141	16.473	-13.872	Cl	1	RES1	0.000	
2	  C1	18.700	9.201	-7.292	C.3	1	RES1	0.000	
3	  N1	19.673	9.365	-9.596	N.pl3	1	RES1	0.000	
4	  O1	20.917	8.549	-7.802	O.2	1	RES1	0.000	
5	  C2	19.839	9.002	-8.236	C.2	1	RES1	0.000	
6	  C3	18.479	9.956	-10.130	C.2	1	RES1	0.000	
7	  C4	17.232	9.418	-9.859	C.2	1	RES1	0.000	
8	  C5	16.089	10.036	-10.333	C.2	1	RES1	0.000	
9	  C6	16.188	11.203	-11.070	C.2	1	RES1	0.000	
10	  N7	20.018	12.399	-12.519	N.pl3	1	RES1	0.000	
11	 C44	17.441	11.722	-11.372	C.2	1	RES1	0.000	
12	 C45	18.623	11.074	-10.964	C.2	1	RES1	0.000	
13	 C46	19.999	11.497	-11.339	C.3	1	RES1	0.000	
14	 C47	21.056	13.344	-12.817	C.2	1	RES1	0.000	
15	 C48	22.144	13.605	-11.960	C.2	1	RES1	0.000	
16	 C49	23.087	14.562	-12.287	C.2	1	RES1	0.000	
17	 C50	22.955	15.288	-13.472	C.2	1	RES1	0.000	
18	 C51	21.865	15.060	-14.349	C.2	1	RES1	0.000	
19	 C52	20.929	14.096	-13.969	C.2	1	RES1	0.000	
20	 C53	20.812	10.247	-11.651	C.3	1	RES1	0.000	
21	 C54	20.835	9.272	-10.500	C.3	1	RES1	0.000	
22	 C55	21.062	7.855	-10.982	C.3	1	RES1	0.000	
@<TRIPOS>BOND
1 1 17 1
2 2 5 1
3 3 5 1
4 3 6 1
5 3 21 1
6 4 5 2
7 6 7 ar
8 6 12 ar
9 7 8 ar
10 8 9 ar
11 9 11 ar
12 11 12 ar
13 12 13 1
14 10 13 1
15 13 20 1
16 10 14 1
17 14 15 ar
18 14 19 ar
19 15 16 ar
20 16 17 ar
21 17 18 ar
22 18 19 ar
23 20 21 1
24 21 22 1
@<TRIPOS>SUBSTRUCTURE
1	RES1	1	GROUP	1 ****	RES
