# created with PyMOL 2.5.2
@<TRIPOS>MOLECULE
BRD2_4A9H_TargetProtein
22 24 1                 
SMALL
USER_CHARGES
@<TRIPOS>ATOM
1	 CL1	24.032	16.635	-13.790	Cl	1	RES1	0.000	
2	  C1	18.594	9.279	-7.370	C.3	1	RES1	0.000	
3	  N1	19.742	9.371	-9.592	N.pl3	1	RES1	0.000	
4	  O1	20.807	8.510	-7.708	O.2	1	RES1	0.000	
5	  C2	19.819	9.035	-8.229	C.2	1	RES1	0.000	
6	  C3	18.532	9.936	-10.117	C.2	1	RES1	0.000	
7	  C4	17.268	9.405	-9.774	C.2	1	RES1	0.000	
8	  C5	16.114	10.010	-10.263	C.2	1	RES1	0.000	
9	  C6	16.199	11.182	-11.046	C.2	1	RES1	0.000	
10	  N7	20.003	12.423	-12.501	N.pl3	1	RES1	0.000	
11	 C46	17.443	11.672	-11.387	C.2	1	RES1	0.000	
12	 C47	18.612	11.043	-10.965	C.2	1	RES1	0.000	
13	 C48	20.028	11.521	-11.329	C.3	1	RES1	0.000	
14	 C49	21.002	13.404	-12.787	C.2	1	RES1	0.000	
15	 C50	22.083	13.680	-11.934	C.2	1	RES1	0.000	
16	 C51	23.009	14.670	-12.229	C.2	1	RES1	0.000	
17	 C52	22.882	15.400	-13.401	C.2	1	RES1	0.000	
18	 C53	21.830	15.148	-14.263	C.2	1	RES1	0.000	
19	 C54	20.900	14.164	-13.937	C.2	1	RES1	0.000	
20	 C55	20.843	10.298	-11.690	C.3	1	RES1	0.000	
21	 C56	20.879	9.272	-10.530	C.3	1	RES1	0.000	
22	 C57	21.009	7.864	-11.123	C.3	1	RES1	0.000	
@<TRIPOS>BOND
1 1 17 1
2 2 5 1
3 3 5 1
4 3 6 1
5 3 21 1
6 4 5 2
7 6 7 ar
8 6 12 ar
9 7 8 ar
10 8 9 ar
11 9 11 ar
12 11 12 ar
13 12 13 1
14 10 13 1
15 13 20 1
16 10 14 1
17 14 15 ar
18 14 19 ar
19 15 16 ar
20 16 17 ar
21 17 18 ar
22 18 19 ar
23 20 21 1
24 21 22 1
@<TRIPOS>SUBSTRUCTURE
1	RES1	1	GROUP	1 ****	RES
