# created with PyMOL 2.5.2
@<TRIPOS>MOLECULE
BRD2_4A9H_TargetProtein
22 24 1                 
SMALL
USER_CHARGES
@<TRIPOS>ATOM
1	 CL1	23.993	16.617	-13.830	Cl	1	RES1	0.000	
2	  C1	18.567	9.295	-7.435	C.3	1	RES1	0.000	
3	  N1	19.758	9.359	-9.615	N.pl3	1	RES1	0.000	
4	  O1	20.774	8.523	-7.649	O.2	1	RES1	0.000	
5	  C2	19.828	9.028	-8.225	C.2	1	RES1	0.000	
6	  C3	18.530	9.933	-10.111	C.2	1	RES1	0.000	
7	  C4	17.273	9.407	-9.778	C.2	1	RES1	0.000	
8	  C5	16.131	10.009	-10.233	C.2	1	RES1	0.000	
9	  C6	16.207	11.156	-11.020	C.2	1	RES1	0.000	
10	  N7	20.000	12.427	-12.501	N.pl3	1	RES1	0.000	
11	 C46	17.443	11.694	-11.374	C.2	1	RES1	0.000	
12	 C47	18.640	11.041	-10.975	C.2	1	RES1	0.000	
13	 C48	19.995	11.526	-11.337	C.3	1	RES1	0.000	
14	 C49	21.002	13.428	-12.780	C.2	1	RES1	0.000	
15	 C50	22.082	13.685	-11.953	C.2	1	RES1	0.000	
16	 C51	22.996	14.671	-12.281	C.2	1	RES1	0.000	
17	 C52	22.828	15.401	-13.435	C.2	1	RES1	0.000	
18	 C53	21.777	15.149	-14.274	C.2	1	RES1	0.000	
19	 C54	20.852	14.166	-13.988	C.2	1	RES1	0.000	
20	 C55	20.842	10.302	-11.686	C.3	1	RES1	0.000	
21	 C56	20.897	9.271	-10.549	C.3	1	RES1	0.000	
22	 C57	21.004	7.853	-11.138	C.3	1	RES1	0.000	
@<TRIPOS>BOND
1 1 17 1
2 2 5 1
3 3 5 1
4 3 6 1
5 3 21 1
6 4 5 2
7 6 7 ar
8 6 12 ar
9 7 8 ar
10 8 9 ar
11 9 11 ar
12 11 12 ar
13 12 13 1
14 10 13 1
15 13 20 1
16 10 14 1
17 14 15 ar
18 14 19 ar
19 15 16 ar
20 16 17 ar
21 17 18 ar
22 18 19 ar
23 20 21 1
24 21 22 1
@<TRIPOS>SUBSTRUCTURE
1	RES1	1	GROUP	1 ****	RES
