# created with PyMOL 2.5.2
@<TRIPOS>MOLECULE
BRD4_6YQN_TargetProtein
24 27 1                 
SMALL
USER_CHARGES
@<TRIPOS>ATOM
1	 CL1	25.743	17.889	-6.980	Cl	1	RES1	0.000	
2	  S1	28.513	16.325	1.368	S.2	1	RES1	0.000	
3	  N5	30.589	15.772	-2.887	N.2	1	RES1	0.000	
4	  N6	30.774	16.814	0.011	N.2	1	RES1	0.000	
5	  N7	32.703	17.779	0.550	N.2	1	RES1	0.000	
6	  N8	32.931	16.962	-0.535	N.2	1	RES1	0.000	
7	 C23	32.834	14.960	-2.600	C.3	1	RES1	0.000	
8	 C24	31.557	15.318	-1.879	C.3	1	RES1	0.000	
9	 C25	29.341	16.004	-2.551	C.2	1	RES1	0.000	
10	 C26	28.423	16.465	-3.644	C.2	1	RES1	0.000	
11	 C27	28.690	16.120	-4.954	C.2	1	RES1	0.000	
12	 C28	27.841	16.570	-6.010	C.2	1	RES1	0.000	
13	 C29	26.777	17.355	-5.705	C.2	1	RES1	0.000	
14	 C30	26.495	17.742	-4.396	C.2	1	RES1	0.000	
15	 C31	27.326	17.311	-3.372	C.2	1	RES1	0.000	
16	 C32	28.791	15.881	-1.180	C.2	1	RES1	0.000	
17	 C33	29.453	16.380	-0.049	C.2	1	RES1	0.000	
18	 C34	27.243	15.501	0.516	C.2	1	RES1	0.000	
19	 C35	26.008	15.100	1.269	C.3	1	RES1	0.000	
20	 C36	27.518	15.292	-0.809	C.2	1	RES1	0.000	
21	 C37	26.618	14.566	-1.742	C.3	1	RES1	0.000	
22	 C38	31.419	17.702	0.872	C.2	1	RES1	0.000	
23	 C39	30.815	18.491	1.950	C.3	1	RES1	0.000	
24	 C40	31.785	16.376	-0.851	C.2	1	RES1	0.000	
@<TRIPOS>BOND
1 1 13 1
2 2 17 ar
3 2 18 ar
4 5 6 ar
5 7 8 1
6 3 8 1
7 8 24 1
8 3 9 2
9 9 10 1
10 9 16 1
11 10 11 ar
12 10 15 ar
13 11 12 ar
14 12 13 ar
15 13 14 ar
16 14 15 ar
17 16 17 ar
18 16 20 ar
19 4 17 1
20 18 19 1
21 18 20 ar
22 20 21 1
23 4 22 ar
24 5 22 ar
25 22 23 1
26 4 24 ar
27 6 24 ar
@<TRIPOS>SUBSTRUCTURE
1	RES1	1	GROUP	1 ****	RES
