# created with PyMOL 2.5.2
@<TRIPOS>MOLECULE
BRD4_4C67_TargetProtein
23 26 1                 
SMALL
USER_CHARGES
@<TRIPOS>ATOM
1	  S1	-10.000	-5.900	-1.294	S.2	1	RES1	0.000	
2	  N5	-12.232	-6.357	2.900	N.2	1	RES1	0.000	
3	  N6	-7.526	-4.701	6.894	N.pl3	1	RES1	0.000	
4	  N7	-12.309	-5.238	0.027	N.2	1	RES1	0.000	
5	  N8	-14.131	-4.170	-0.583	N.2	1	RES1	0.000	
6	  N9	-14.423	-4.966	0.490	N.2	1	RES1	0.000	
7	 C26	-13.207	-6.705	1.847	C.3	1	RES1	0.000	
8	 C27	-10.970	-6.178	2.587	C.2	1	RES1	0.000	
9	 C28	-10.045	-5.831	3.697	C.2	1	RES1	0.000	
10	 C29	-8.860	-5.125	3.451	C.2	1	RES1	0.000	
11	 C30	-8.026	-4.787	4.507	C.2	1	RES1	0.000	
12	 C31	-8.347	-5.123	5.829	C.2	1	RES1	0.000	
13	 C32	-9.563	-5.770	6.082	C.2	1	RES1	0.000	
14	 C33	-10.399	-6.140	5.023	C.2	1	RES1	0.000	
15	 C34	-10.410	-6.362	1.222	C.2	1	RES1	0.000	
16	 C35	-11.018	-5.817	0.111	C.2	1	RES1	0.000	
17	 C36	-8.826	-6.843	-0.465	C.2	1	RES1	0.000	
18	 C37	-7.628	-7.298	-1.188	C.3	1	RES1	0.000	
19	 C38	-9.177	-7.039	0.880	C.2	1	RES1	0.000	
20	 C39	-8.342	-7.847	1.820	C.3	1	RES1	0.000	
21	 C40	-12.856	-4.321	-0.885	C.2	1	RES1	0.000	
22	 C41	-12.151	-3.554	-1.922	C.3	1	RES1	0.000	
23	 C42	-13.320	-5.622	0.813	C.2	1	RES1	0.000	
@<TRIPOS>BOND
1 1 16 ar
2 1 17 ar
3 5 6 ar
4 2 7 1
5 7 23 1
6 2 8 2
7 8 9 1
8 8 15 1
9 9 10 ar
10 9 14 ar
11 10 11 ar
12 11 12 ar
13 3 12 1
14 12 13 ar
15 13 14 ar
16 15 16 ar
17 15 19 ar
18 4 16 1
19 17 18 1
20 17 19 ar
21 19 20 1
22 4 21 ar
23 5 21 ar
24 21 22 1
25 4 23 ar
26 6 23 ar
@<TRIPOS>SUBSTRUCTURE
1	RES1	1	GROUP	1 ****	RES
