# created with PyMOL 2.5.2
@<TRIPOS>MOLECULE
BRD4_4C67_TargetProtein
26 29 1                 
SMALL
USER_CHARGES
@<TRIPOS>ATOM
1	  S1	-10.001	-5.922	-1.305	S.2	1	RES1	0.000	
2	  N5	-12.231	-6.352	2.882	N.2	1	RES1	0.000	
3	  N6	-6.244	-2.762	9.451	N.3	1	RES1	0.000	
4	  N7	-12.290	-5.243	-0.003	N.2	1	RES1	0.000	
5	  N8	-14.123	-4.157	-0.557	N.2	1	RES1	0.000	
6	  N9	-14.428	-4.961	0.481	N.2	1	RES1	0.000	
7	 C26	-13.224	-6.679	1.830	C.3	1	RES1	0.000	
8	 C27	-10.963	-6.203	2.596	C.2	1	RES1	0.000	
9	 C28	-10.033	-5.831	3.709	C.2	1	RES1	0.000	
10	 C29	-10.384	-6.171	5.039	C.2	1	RES1	0.000	
11	 C30	-9.548	-5.796	6.083	C.2	1	RES1	0.000	
12	 C31	-8.366	-5.109	5.817	C.2	1	RES1	0.000	
13	 C32	-7.503	-4.746	6.906	C.3	1	RES1	0.000	
14	 C33	-6.786	-4.423	7.821	C.3	1	RES1	0.000	
15	 C34	-5.887	-4.044	8.912	C.3	1	RES1	0.000	
16	 C35	-8.044	-4.769	4.517	C.2	1	RES1	0.000	
17	 C36	-8.851	-5.096	3.449	C.2	1	RES1	0.000	
18	 C37	-10.410	-6.370	1.224	C.2	1	RES1	0.000	
19	 C38	-10.999	-5.791	0.110	C.2	1	RES1	0.000	
20	 C39	-8.845	-6.841	-0.466	C.2	1	RES1	0.000	
21	 C40	-7.654	-7.341	-1.173	C.3	1	RES1	0.000	
22	 C41	-9.189	-7.027	0.891	C.2	1	RES1	0.000	
23	 C42	-8.358	-7.858	1.829	C.3	1	RES1	0.000	
24	 C43	-12.848	-4.343	-0.861	C.2	1	RES1	0.000	
25	 C44	-12.164	-3.573	-1.939	C.3	1	RES1	0.000	
26	 C45	-13.327	-5.614	0.819	C.2	1	RES1	0.000	
@<TRIPOS>BOND
1 1 19 ar
2 1 20 ar
3 5 6 ar
4 2 7 1
5 7 26 1
6 2 8 2
7 8 9 1
8 8 18 1
9 9 10 ar
10 9 17 ar
11 10 11 ar
12 11 12 ar
13 12 13 1
14 12 16 ar
15 13 14 1
16 14 15 1
17 3 15 1
18 16 17 ar
19 18 19 ar
20 18 22 ar
21 4 19 1
22 20 21 1
23 20 22 ar
24 22 23 1
25 4 24 ar
26 5 24 ar
27 24 25 1
28 4 26 ar
29 6 26 ar
@<TRIPOS>SUBSTRUCTURE
1	RES1	1	GROUP	1 ****	RES
