# created with PyMOL 2.5.2
@<TRIPOS>MOLECULE
BRD4_6YQN_TargetProtein
24 27 1                 
SMALL
USER_CHARGES
@<TRIPOS>ATOM
1	 CL1	25.745	17.932	-6.995	Cl	1	RES1	0.000	
2	  S2	28.506	16.326	1.351	S.2	1	RES1	0.000	
3	  N7	30.563	15.784	-2.868	N.2	1	RES1	0.000	
4	  N8	30.799	16.827	-0.003	N.2	1	RES1	0.000	
5	  N9	32.706	17.780	0.550	N.2	1	RES1	0.000	
6	 N10	32.918	16.963	-0.536	N.2	1	RES1	0.000	
7	 C31	32.847	14.936	-2.580	C.3	1	RES1	0.000	
8	 C32	31.546	15.318	-1.870	C.3	1	RES1	0.000	
9	 C33	29.347	16.000	-2.552	C.2	1	RES1	0.000	
10	 C34	28.413	16.478	-3.637	C.2	1	RES1	0.000	
11	 C35	28.709	16.132	-4.994	C.2	1	RES1	0.000	
12	 C36	27.845	16.551	-6.007	C.2	1	RES1	0.000	
13	 C37	26.764	17.357	-5.720	C.2	1	RES1	0.000	
14	 C38	26.476	17.734	-4.394	C.2	1	RES1	0.000	
15	 C39	27.320	17.304	-3.353	C.2	1	RES1	0.000	
16	 C40	28.794	15.878	-1.190	C.2	1	RES1	0.000	
17	 C41	29.469	16.377	-0.048	C.2	1	RES1	0.000	
18	 C42	27.228	15.492	0.521	C.2	1	RES1	0.000	
19	 C43	26.027	15.080	1.275	C.3	1	RES1	0.000	
20	 C44	27.528	15.287	-0.807	C.2	1	RES1	0.000	
21	 C45	26.619	14.559	-1.728	C.3	1	RES1	0.000	
22	 C46	31.429	17.694	0.865	C.2	1	RES1	0.000	
23	 C47	30.805	18.506	1.934	C.3	1	RES1	0.000	
24	 C48	31.801	16.388	-0.823	C.2	1	RES1	0.000	
@<TRIPOS>BOND
1 1 13 1
2 2 17 ar
3 2 18 ar
4 5 6 ar
5 6 24 ar
6 7 8 1
7 3 8 1
8 8 24 1
9 3 9 2
10 9 10 1
11 9 16 1
12 10 11 ar
13 10 15 ar
14 11 12 ar
15 12 13 ar
16 13 14 ar
17 14 15 ar
18 16 17 ar
19 16 20 ar
20 4 17 1
21 18 19 1
22 18 20 ar
23 20 21 1
24 4 22 ar
25 5 22 ar
26 22 23 1
27 4 24 ar
@<TRIPOS>SUBSTRUCTURE
1	RES1	1	GROUP	1 ****	RES
