# created with PyMOL 2.5.2
@<TRIPOS>MOLECULE
BRD4_6YQN_TargetProtein
24 27 1                 
SMALL
USER_CHARGES
@<TRIPOS>ATOM
1	 CL1	25.736	17.898	-6.986	Cl	1	RES1	0.000	
2	  S1	28.516	16.329	1.349	S.2	1	RES1	0.000	
3	  N5	30.574	15.785	-2.886	N.2	1	RES1	0.000	
4	  N6	30.775	16.821	0.015	N.2	1	RES1	0.000	
5	  N7	32.709	17.777	0.572	N.2	1	RES1	0.000	
6	  N8	32.928	16.953	-0.525	N.2	1	RES1	0.000	
7	 C25	32.825	14.948	-2.590	C.3	1	RES1	0.000	
8	 C26	31.564	15.330	-1.869	C.3	1	RES1	0.000	
9	 C27	29.332	16.011	-2.560	C.2	1	RES1	0.000	
10	 C28	28.428	16.465	-3.653	C.2	1	RES1	0.000	
11	 C29	28.682	16.129	-4.967	C.2	1	RES1	0.000	
12	 C30	27.858	16.540	-6.014	C.2	1	RES1	0.000	
13	 C31	26.755	17.356	-5.719	C.2	1	RES1	0.000	
14	 C32	26.497	17.769	-4.383	C.2	1	RES1	0.000	
15	 C33	27.330	17.305	-3.374	C.2	1	RES1	0.000	
16	 C34	28.816	15.875	-1.198	C.2	1	RES1	0.000	
17	 C35	29.447	16.373	-0.052	C.2	1	RES1	0.000	
18	 C36	27.223	15.494	0.525	C.2	1	RES1	0.000	
19	 C37	26.021	15.091	1.274	C.3	1	RES1	0.000	
20	 C38	27.532	15.291	-0.806	C.2	1	RES1	0.000	
21	 C39	26.622	14.560	-1.730	C.3	1	RES1	0.000	
22	 C40	31.440	17.699	0.865	C.2	1	RES1	0.000	
23	 C41	30.806	18.489	1.939	C.3	1	RES1	0.000	
24	 C42	31.789	16.393	-0.839	C.2	1	RES1	0.000	
@<TRIPOS>BOND
1 1 13 1
2 2 17 ar
3 2 18 ar
4 5 6 ar
5 7 8 1
6 3 8 1
7 8 24 1
8 3 9 2
9 9 10 1
10 9 16 1
11 10 11 ar
12 10 15 ar
13 11 12 ar
14 12 13 ar
15 13 14 ar
16 14 15 ar
17 16 17 ar
18 16 20 ar
19 4 17 1
20 18 19 1
21 18 20 ar
22 20 21 1
23 4 22 ar
24 5 22 ar
25 22 23 1
26 4 24 ar
27 6 24 ar
@<TRIPOS>SUBSTRUCTURE
1	RES1	1	GROUP	1 ****	RES
