# created with PyMOL 2.5.2
@<TRIPOS>MOLECULE
BRD4_6YQN_TargetProtein
24 27 1                 
SMALL
USER_CHARGES
@<TRIPOS>ATOM
1	 CL1	25.741	17.890	-6.983	Cl	1	RES1	0.000	
2	  S1	28.484	16.306	1.350	S.2	1	RES1	0.000	
3	  N6	30.588	15.772	-2.866	N.2	1	RES1	0.000	
4	  N7	30.801	16.826	-0.008	N.2	1	RES1	0.000	
5	  N8	32.696	17.782	0.550	N.2	1	RES1	0.000	
6	  N9	32.913	16.955	-0.532	N.2	1	RES1	0.000	
7	 C28	32.825	14.962	-2.613	C.3	1	RES1	0.000	
8	 C29	31.568	15.315	-1.861	C.3	1	RES1	0.000	
9	 C30	29.326	16.027	-2.565	C.2	1	RES1	0.000	
10	 C31	28.427	16.473	-3.653	C.2	1	RES1	0.000	
11	 C32	28.676	16.111	-4.973	C.2	1	RES1	0.000	
12	 C33	27.876	16.551	-5.998	C.2	1	RES1	0.000	
13	 C34	26.758	17.362	-5.696	C.2	1	RES1	0.000	
14	 C35	26.495	17.744	-4.422	C.2	1	RES1	0.000	
15	 C36	27.322	17.327	-3.373	C.2	1	RES1	0.000	
16	 C37	28.815	15.892	-1.188	C.2	1	RES1	0.000	
17	 C38	29.474	16.363	-0.063	C.2	1	RES1	0.000	
18	 C39	27.230	15.497	0.534	C.2	1	RES1	0.000	
19	 C40	26.031	15.088	1.284	C.3	1	RES1	0.000	
20	 C41	27.542	15.305	-0.806	C.2	1	RES1	0.000	
21	 C42	26.595	14.567	-1.733	C.3	1	RES1	0.000	
22	 C43	31.432	17.693	0.878	C.2	1	RES1	0.000	
23	 C44	30.803	18.494	1.956	C.3	1	RES1	0.000	
24	 C45	31.787	16.379	-0.828	C.2	1	RES1	0.000	
@<TRIPOS>BOND
1 1 13 1
2 2 17 ar
3 2 18 ar
4 5 6 ar
5 7 8 1
6 3 8 1
7 8 24 1
8 3 9 2
9 9 10 1
10 9 16 1
11 10 11 ar
12 10 15 ar
13 11 12 ar
14 12 13 ar
15 13 14 ar
16 14 15 ar
17 16 17 ar
18 16 20 ar
19 4 17 1
20 18 19 1
21 18 20 ar
22 20 21 1
23 4 22 ar
24 5 22 ar
25 22 23 1
26 4 24 ar
27 6 24 ar
@<TRIPOS>SUBSTRUCTURE
1	RES1	1	GROUP	1 ****	RES
