# created with PyMOL 2.5.2
@<TRIPOS>MOLECULE
BRD4_6YQN_TargetProtein
24 27 1                 
SMALL
USER_CHARGES
@<TRIPOS>ATOM
1	 CL1	25.733	17.885	-6.987	Cl	1	RES1	0.000	
2	  S1	28.505	16.322	1.352	S.2	1	RES1	0.000	
3	  N6	30.600	15.764	-2.867	N.2	1	RES1	0.000	
4	  N7	30.772	16.822	0.006	N.2	1	RES1	0.000	
5	  N8	32.708	17.785	0.547	N.2	1	RES1	0.000	
6	  N9	32.923	16.945	-0.519	N.2	1	RES1	0.000	
7	 C27	32.836	14.961	-2.604	C.3	1	RES1	0.000	
8	 C28	31.553	15.322	-1.855	C.3	1	RES1	0.000	
9	 C29	29.333	16.015	-2.545	C.2	1	RES1	0.000	
10	 C30	28.419	16.473	-3.650	C.2	1	RES1	0.000	
11	 C31	28.685	16.098	-4.974	C.2	1	RES1	0.000	
12	 C32	27.856	16.576	-6.023	C.2	1	RES1	0.000	
13	 C33	26.747	17.371	-5.725	C.2	1	RES1	0.000	
14	 C34	26.505	17.732	-4.415	C.2	1	RES1	0.000	
15	 C35	27.322	17.333	-3.364	C.2	1	RES1	0.000	
16	 C36	28.788	15.884	-1.208	C.2	1	RES1	0.000	
17	 C37	29.455	16.371	-0.071	C.2	1	RES1	0.000	
18	 C38	27.236	15.499	0.517	C.2	1	RES1	0.000	
19	 C39	26.023	15.088	1.289	C.3	1	RES1	0.000	
20	 C40	27.541	15.295	-0.790	C.2	1	RES1	0.000	
21	 C41	26.618	14.563	-1.734	C.3	1	RES1	0.000	
22	 C42	31.445	17.679	0.894	C.2	1	RES1	0.000	
23	 C43	30.818	18.494	1.960	C.3	1	RES1	0.000	
24	 C44	31.782	16.403	-0.846	C.2	1	RES1	0.000	
@<TRIPOS>BOND
1 1 13 1
2 2 17 ar
3 2 18 ar
4 5 6 ar
5 7 8 1
6 3 8 1
7 8 24 1
8 3 9 2
9 9 10 1
10 9 16 1
11 10 11 ar
12 10 15 ar
13 11 12 ar
14 12 13 ar
15 13 14 ar
16 14 15 ar
17 16 17 ar
18 16 20 ar
19 4 17 1
20 18 19 1
21 18 20 ar
22 20 21 1
23 4 22 ar
24 5 22 ar
25 22 23 1
26 4 24 ar
27 6 24 ar
@<TRIPOS>SUBSTRUCTURE
1	RES1	1	GROUP	1 ****	RES
