# created with PyMOL 2.5.2
@<TRIPOS>MOLECULE
BRD4_4C67_TargetProtein
28 32 1                 
SMALL
USER_CHARGES
@<TRIPOS>ATOM
1	  S1	-14.527	-8.061	5.111	S.2	1	RES1	0.000	
2	  S2	-10.044	-5.915	-1.320	S.2	1	RES1	0.000	
3	  N5	-12.222	-6.343	2.876	N.2	1	RES1	0.000	
4	  N6	-14.386	-9.438	2.937	N.2	1	RES1	0.000	
5	  N7	-14.412	-4.939	0.502	N.2	1	RES1	0.000	
6	  N8	-14.093	-4.149	-0.568	N.2	1	RES1	0.000	
7	  N9	-12.288	-5.241	0.005	N.2	1	RES1	0.000	
8	 C31	-8.389	-5.085	5.800	C.2	1	RES1	0.000	
9	 C32	-9.547	-5.809	6.086	C.2	1	RES1	0.000	
10	 C33	-10.358	-6.187	5.034	C.2	1	RES1	0.000	
11	 C34	-10.035	-5.826	3.689	C.2	1	RES1	0.000	
12	 C35	-10.978	-6.204	2.591	C.2	1	RES1	0.000	
13	 C36	-13.217	-6.719	1.825	C.3	1	RES1	0.000	
14	 C37	-14.571	-6.990	2.522	C.3	1	RES1	0.000	
15	 C38	-14.488	-8.217	3.386	C.2	1	RES1	0.000	
16	 C39	-14.348	-10.324	3.976	C.2	1	RES1	0.000	
17	 C40	-14.396	-9.769	5.250	C.2	1	RES1	0.000	
18	 C41	-13.319	-5.632	0.818	C.2	1	RES1	0.000	
19	 C42	-12.851	-4.327	-0.856	C.2	1	RES1	0.000	
20	 C43	-12.131	-3.571	-1.913	C.3	1	RES1	0.000	
21	 C44	-11.011	-5.811	0.104	C.2	1	RES1	0.000	
22	 C45	-10.415	-6.362	1.240	C.2	1	RES1	0.000	
23	 C46	-9.172	-7.061	0.880	C.2	1	RES1	0.000	
24	 C47	-8.361	-7.841	1.813	C.3	1	RES1	0.000	
25	 C48	-8.855	-6.847	-0.463	C.2	1	RES1	0.000	
26	 C49	-7.628	-7.366	-1.194	C.3	1	RES1	0.000	
27	 C50	-8.870	-5.091	3.465	C.2	1	RES1	0.000	
28	 C51	-8.057	-4.729	4.518	C.2	1	RES1	0.000	
@<TRIPOS>BOND
1 1 15 ar
2 1 17 ar
3 2 21 ar
4 2 25 ar
5 5 6 ar
6 8 9 ar
7 8 28 ar
8 9 10 ar
9 10 11 ar
10 11 12 1
11 11 27 ar
12 3 12 2
13 12 22 1
14 3 13 1
15 13 14 1
16 13 18 1
17 14 15 1
18 4 15 ar
19 4 16 ar
20 16 17 ar
21 5 18 ar
22 7 18 ar
23 6 19 ar
24 7 19 ar
25 19 20 1
26 7 21 1
27 21 22 ar
28 22 23 ar
29 23 24 1
30 23 25 ar
31 25 26 1
32 27 28 ar
@<TRIPOS>SUBSTRUCTURE
1	RES1	1	GROUP	1 ****	RES
