# created with PyMOL 2.5.2
@<TRIPOS>MOLECULE
BRD4_4C67_TargetProtein
32 35 1                 
SMALL
USER_CHARGES
@<TRIPOS>ATOM
1	  S1	-13.055	-7.995	7.576	S.3	1	RES1	0.000	
2	  S2	-10.026	-5.921	-1.326	S.2	1	RES1	0.000	
3	  N5	-12.228	-6.360	2.876	N.2	1	RES1	0.000	
4	  N6	-14.234	-8.235	4.590	N.pl3	1	RES1	0.000	
5	  N7	-14.398	-4.942	0.507	N.2	1	RES1	0.000	
6	  O7	-14.606	-9.432	2.655	O.2	1	RES1	0.000	
7	  N8	-14.091	-4.129	-0.540	N.2	1	RES1	0.000	
8	  O8	-11.749	-8.011	8.228	O.3	1	RES1	0.000	
9	  N9	-12.296	-5.262	0.001	N.2	1	RES1	0.000	
10	  O9	-13.292	-6.805	6.793	O.2	1	RES1	0.000	
11	 O10	-14.156	-8.402	8.444	O.2	1	RES1	0.000	
12	 C31	-8.374	-5.084	5.820	C.2	1	RES1	0.000	
13	 C32	-9.559	-5.780	6.059	C.2	1	RES1	0.000	
14	 C33	-10.377	-6.161	5.020	C.2	1	RES1	0.000	
15	 C34	-10.049	-5.827	3.710	C.2	1	RES1	0.000	
16	 C35	-10.947	-6.237	2.589	C.2	1	RES1	0.000	
17	 C36	-13.222	-6.740	1.829	C.3	1	RES1	0.000	
18	 C37	-14.528	-7.038	2.503	C.3	1	RES1	0.000	
19	 C38	-14.463	-8.375	3.239	C.2	1	RES1	0.000	
20	 C39	-14.148	-9.394	5.496	C.3	1	RES1	0.000	
21	 C40	-12.929	-9.309	6.399	C.3	1	RES1	0.000	
22	 C41	-13.336	-5.623	0.823	C.2	1	RES1	0.000	
23	 C42	-12.833	-4.319	-0.862	C.2	1	RES1	0.000	
24	 C43	-12.144	-3.559	-1.904	C.3	1	RES1	0.000	
25	 C44	-11.013	-5.805	0.104	C.2	1	RES1	0.000	
26	 C45	-10.420	-6.367	1.228	C.2	1	RES1	0.000	
27	 C46	-9.192	-7.049	0.889	C.2	1	RES1	0.000	
28	 C47	-8.367	-7.890	1.787	C.3	1	RES1	0.000	
29	 C48	-8.837	-6.853	-0.470	C.2	1	RES1	0.000	
30	 C49	-7.656	-7.353	-1.210	C.3	1	RES1	0.000	
31	 C50	-8.875	-5.085	3.448	C.2	1	RES1	0.000	
32	 C51	-8.054	-4.742	4.516	C.2	1	RES1	0.000	
@<TRIPOS>BOND
1 1 8 1
2 1 10 2
3 1 11 2
4 1 21 1
5 2 25 ar
6 2 29 ar
7 5 7 ar
8 12 13 ar
9 12 32 ar
10 13 14 ar
11 14 15 ar
12 15 16 1
13 15 31 ar
14 3 16 2
15 16 26 1
16 3 17 1
17 17 18 1
18 17 22 1
19 18 19 1
20 4 19 1
21 6 19 2
22 4 20 1
23 20 21 1
24 5 22 ar
25 9 22 ar
26 7 23 ar
27 9 23 ar
28 23 24 1
29 9 25 1
30 25 26 ar
31 26 27 ar
32 27 28 1
33 27 29 ar
34 29 30 1
35 31 32 ar
@<TRIPOS>SUBSTRUCTURE
1	RES1	1	GROUP	1 ****	RES
