# created with PyMOL 2.5.2
@<TRIPOS>MOLECULE
BRD4_6YQN_TargetProtein
24 27 1                 
SMALL
USER_CHARGES
@<TRIPOS>ATOM
1	 CL1	25.714	17.887	-6.985	Cl	1	RES1	0.000	
2	  S1	28.499	16.302	1.363	S.2	1	RES1	0.000	
3	  N5	30.564	15.777	-2.879	N.2	1	RES1	0.000	
4	  N6	30.794	16.805	-0.005	N.2	1	RES1	0.000	
5	  N7	32.719	17.781	0.556	N.2	1	RES1	0.000	
6	  N8	32.904	16.950	-0.510	N.2	1	RES1	0.000	
7	 C25	32.857	14.945	-2.577	C.3	1	RES1	0.000	
8	 C26	31.545	15.323	-1.857	C.3	1	RES1	0.000	
9	 C27	29.351	16.014	-2.563	C.2	1	RES1	0.000	
10	 C28	28.411	16.475	-3.670	C.2	1	RES1	0.000	
11	 C29	28.691	16.113	-4.968	C.2	1	RES1	0.000	
12	 C30	27.854	16.547	-5.994	C.2	1	RES1	0.000	
13	 C31	26.765	17.352	-5.713	C.2	1	RES1	0.000	
14	 C32	26.488	17.774	-4.402	C.2	1	RES1	0.000	
15	 C33	27.325	17.313	-3.368	C.2	1	RES1	0.000	
16	 C34	28.799	15.889	-1.191	C.2	1	RES1	0.000	
17	 C35	29.484	16.380	-0.074	C.2	1	RES1	0.000	
18	 C36	27.233	15.508	0.532	C.2	1	RES1	0.000	
19	 C37	26.028	15.085	1.281	C.3	1	RES1	0.000	
20	 C38	27.545	15.304	-0.832	C.2	1	RES1	0.000	
21	 C39	26.607	14.572	-1.747	C.3	1	RES1	0.000	
22	 C40	31.438	17.699	0.882	C.2	1	RES1	0.000	
23	 C41	30.794	18.501	1.958	C.3	1	RES1	0.000	
24	 C42	31.795	16.386	-0.846	C.2	1	RES1	0.000	
@<TRIPOS>BOND
1 1 13 1
2 2 17 ar
3 2 18 ar
4 5 6 ar
5 7 8 1
6 3 8 1
7 8 24 1
8 3 9 2
9 9 10 1
10 9 16 1
11 10 11 ar
12 10 15 ar
13 11 12 ar
14 12 13 ar
15 13 14 ar
16 14 15 ar
17 16 17 ar
18 16 20 ar
19 4 17 1
20 18 19 1
21 18 20 ar
22 20 21 1
23 4 22 ar
24 5 22 ar
25 22 23 1
26 4 24 ar
27 6 24 ar
@<TRIPOS>SUBSTRUCTURE
1	RES1	1	GROUP	1 ****	RES
