# created with PyMOL 2.5.2
@<TRIPOS>MOLECULE
EGFR_5X27_TargetProtein
35 40 1                 
SMALL
USER_CHARGES
@<TRIPOS>ATOM
1	  N4	-49.327	-1.936	-11.593	N.3	1	RES1	0.000	
2	  N5	-50.549	-0.799	-13.970	N.pl3	1	RES1	0.000	
3	  N6	-53.469	1.174	-18.456	N.pl3	1	RES1	0.000	
4	  N7	-54.210	1.871	-20.550	N.2	1	RES1	0.000	
5	  N8	-53.321	0.516	-23.875	N.2	1	RES1	0.000	
6	  N9	-52.014	-1.208	-24.980	N.pl3	1	RES1	0.000	
7	 N10	-52.103	-0.848	-22.606	N.2	1	RES1	0.000	
8	 N11	-52.694	0.025	-20.393	N.2	1	RES1	0.000	
9	 C22	-48.302	-2.064	-10.522	C.3	1	RES1	0.000	
10	 C23	-49.935	-0.597	-11.557	C.3	1	RES1	0.000	
11	 C24	-51.038	-0.432	-12.604	C.3	1	RES1	0.000	
12	 C25	-51.267	-0.346	-15.110	C.2	1	RES1	0.000	
13	 C26	-52.307	0.615	-15.002	C.2	1	RES1	0.000	
14	 C27	-53.001	1.095	-16.095	C.2	1	RES1	0.000	
15	 C28	-52.722	0.650	-17.385	C.2	1	RES1	0.000	
16	 C29	-53.433	1.002	-19.833	C.2	1	RES1	0.000	
17	 C30	-54.258	1.800	-21.878	C.2	1	RES1	0.000	
18	 C31	-53.488	0.825	-22.565	C.2	1	RES1	0.000	
19	 C32	-52.523	-0.505	-23.925	C.2	1	RES1	0.000	
20	 C33	-52.105	-0.847	-26.361	C.2	1	RES1	0.000	
21	 C34	-52.052	0.442	-26.870	C.2	1	RES1	0.000	
22	 C35	-52.137	0.719	-28.239	C.2	1	RES1	0.000	
23	 C36	-52.277	-0.302	-29.139	C.2	1	RES1	0.000	
24	 C37	-52.340	-1.610	-28.656	C.2	1	RES1	0.000	
25	 C38	-52.251	-1.889	-27.306	C.2	1	RES1	0.000	
26	 C39	-51.204	-1.936	-22.175	C.3	1	RES1	0.000	
27	 C40	-50.059	-1.518	-21.272	C.3	1	RES1	0.000	
28	 C41	-48.815	-2.157	-21.844	C.3	1	RES1	0.000	
29	 C42	-49.313	-3.293	-22.673	C.3	1	RES1	0.000	
30	 C43	-50.581	-2.770	-23.263	C.3	1	RES1	0.000	
31	 C44	-52.738	-0.012	-21.762	C.2	1	RES1	0.000	
32	 C45	-51.691	-0.279	-17.514	C.2	1	RES1	0.000	
33	 C46	-50.989	-0.752	-16.421	C.2	1	RES1	0.000	
34	 C47	-49.802	-2.066	-14.041	C.3	1	RES1	0.000	
35	 C48	-48.748	-2.175	-12.933	C.3	1	RES1	0.000	
@<TRIPOS>BOND
1 1 35 1
2 7 19 ar
3 7 26 1
4 7 31 ar
5 8 16 ar
6 8 31 ar
7 1 9 1
8 1 10 1
9 10 11 1
10 2 11 1
11 2 12 1
12 12 13 ar
13 12 33 ar
14 13 14 ar
15 14 15 ar
16 3 15 1
17 15 32 ar
18 3 16 1
19 4 16 ar
20 4 17 ar
21 17 18 ar
22 5 18 ar
23 18 31 ar
24 5 19 ar
25 6 19 1
26 6 20 1
27 20 21 ar
28 20 25 ar
29 21 22 ar
30 22 23 ar
31 23 24 ar
32 24 25 ar
33 26 27 1
34 26 30 1
35 27 28 1
36 28 29 1
37 29 30 1
38 32 33 ar
39 2 34 1
40 34 35 1
@<TRIPOS>SUBSTRUCTURE
1	RES1	1	GROUP	1 ****	RES
