# created with PyMOL 2.5.2
@<TRIPOS>MOLECULE
EGFR_5X27_TargetProtein
35 40 1                 
SMALL
USER_CHARGES
@<TRIPOS>ATOM
1	  N4	-49.097	-2.036	-11.907	N.3	1	RES1	0.000	
2	  N5	-50.452	-0.847	-14.179	N.pl3	1	RES1	0.000	
3	  N6	-53.556	1.073	-18.571	N.pl3	1	RES1	0.000	
4	  N7	-54.364	1.656	-20.669	N.2	1	RES1	0.000	
5	  N8	-53.333	0.424	-23.998	N.2	1	RES1	0.000	
6	  N9	-51.767	-1.023	-25.119	N.pl3	1	RES1	0.000	
7	 N10	-51.937	-0.792	-22.742	N.2	1	RES1	0.000	
8	 N11	-52.619	0.034	-20.536	N.2	1	RES1	0.000	
9	 C22	-48.019	-2.163	-10.867	C.3	1	RES1	0.000	
10	 C23	-49.810	-0.748	-11.753	C.3	1	RES1	0.000	
11	 C24	-50.961	-0.607	-12.770	C.3	1	RES1	0.000	
12	 C25	-51.238	-0.375	-15.261	C.2	1	RES1	0.000	
13	 C26	-50.940	-0.743	-16.582	C.2	1	RES1	0.000	
14	 C27	-51.680	-0.279	-17.693	C.2	1	RES1	0.000	
15	 C28	-52.724	0.575	-17.508	C.2	1	RES1	0.000	
16	 C29	-53.480	0.876	-19.949	C.2	1	RES1	0.000	
17	 C30	-54.392	1.578	-22.013	C.2	1	RES1	0.000	
18	 C31	-53.525	0.696	-22.660	C.2	1	RES1	0.000	
19	 C32	-52.345	-0.476	-24.019	C.2	1	RES1	0.000	
20	 C33	-51.964	-0.672	-26.497	C.2	1	RES1	0.000	
21	 C34	-52.109	0.628	-26.992	C.2	1	RES1	0.000	
22	 C35	-52.264	0.864	-28.356	C.2	1	RES1	0.000	
23	 C36	-52.326	-0.183	-29.251	C.2	1	RES1	0.000	
24	 C37	-52.202	-1.496	-28.787	C.2	1	RES1	0.000	
25	 C38	-52.013	-1.739	-27.429	C.2	1	RES1	0.000	
26	 C39	-50.944	-1.826	-22.331	C.3	1	RES1	0.000	
27	 C40	-51.495	-2.856	-21.347	C.3	1	RES1	0.000	
28	 C41	-50.465	-2.886	-20.231	C.3	1	RES1	0.000	
29	 C42	-49.191	-2.337	-20.817	C.3	1	RES1	0.000	
30	 C43	-49.689	-1.251	-21.729	C.3	1	RES1	0.000	
31	 C44	-52.695	-0.021	-21.873	C.2	1	RES1	0.000	
32	 C45	-53.050	0.982	-16.214	C.2	1	RES1	0.000	
33	 C46	-52.289	0.526	-15.116	C.2	1	RES1	0.000	
34	 C47	-49.606	-2.030	-14.340	C.3	1	RES1	0.000	
35	 C48	-48.529	-2.134	-13.263	C.3	1	RES1	0.000	
@<TRIPOS>BOND
1 1 35 1
2 7 19 ar
3 7 26 1
4 7 31 ar
5 8 16 ar
6 8 31 ar
7 1 9 1
8 1 10 1
9 10 11 1
10 2 11 1
11 2 12 1
12 12 13 ar
13 12 33 ar
14 13 14 ar
15 14 15 ar
16 3 15 1
17 15 32 ar
18 3 16 1
19 4 16 ar
20 4 17 ar
21 17 18 ar
22 5 18 ar
23 18 31 ar
24 5 19 ar
25 6 19 1
26 6 20 1
27 20 21 ar
28 20 25 ar
29 21 22 ar
30 22 23 ar
31 23 24 ar
32 24 25 ar
33 26 27 1
34 26 30 1
35 27 28 1
36 28 29 1
37 29 30 1
38 32 33 ar
39 2 34 1
40 34 35 1
@<TRIPOS>SUBSTRUCTURE
1	RES1	1	GROUP	1 ****	RES
