# created with PyMOL 2.5.2
@<TRIPOS>MOLECULE
BRD4_6YQN_TargetProtein
24 27 1                 
SMALL
USER_CHARGES
@<TRIPOS>ATOM
1	 CL1	25.744	17.890	-6.995	Cl	1	RES1	0.000	
2	  C1	26.029	15.084	1.286	C.3	1	RES1	0.000	
3	  N1	30.798	16.820	0.007	N.2	1	RES1	0.000	
4	  S1	28.505	16.314	1.360	S.2	1	RES1	0.000	
5	  C2	27.247	15.510	0.527	C.2	1	RES1	0.000	
6	  N2	32.707	17.768	0.554	N.2	1	RES1	0.000	
7	  C3	27.528	15.312	-0.823	C.2	1	RES1	0.000	
8	  N3	32.930	16.969	-0.524	N.2	1	RES1	0.000	
9	  C4	26.614	14.561	-1.731	C.3	1	RES1	0.000	
10	  C5	28.781	15.874	-1.197	C.2	1	RES1	0.000	
11	  C6	29.485	16.371	-0.052	C.2	1	RES1	0.000	
12	  C7	31.424	17.712	0.872	C.2	1	RES1	0.000	
13	  C8	30.797	18.481	1.959	C.3	1	RES1	0.000	
14	  N8	30.584	15.795	-2.874	N.2	1	RES1	0.000	
15	  C9	31.768	16.371	-0.824	C.2	1	RES1	0.000	
16	 C10	31.553	15.317	-1.873	C.3	1	RES1	0.000	
17	 C11	32.858	14.951	-2.602	C.3	1	RES1	0.000	
18	 C32	29.322	15.995	-2.548	C.2	1	RES1	0.000	
19	 C33	28.421	16.488	-3.662	C.2	1	RES1	0.000	
20	 C34	27.322	17.333	-3.380	C.2	1	RES1	0.000	
21	 C35	26.507	17.748	-4.400	C.2	1	RES1	0.000	
22	 C36	26.762	17.361	-5.705	C.2	1	RES1	0.000	
23	 C37	27.848	16.533	-6.000	C.2	1	RES1	0.000	
24	 C38	28.669	16.122	-4.985	C.2	1	RES1	0.000	
@<TRIPOS>BOND
1 1 22 1
2 2 5 1
3 3 11 1
4 3 12 ar
5 3 15 ar
6 4 5 ar
7 4 11 ar
8 5 7 ar
9 6 8 ar
10 6 12 ar
11 7 9 1
12 7 10 ar
13 8 15 ar
14 10 11 ar
15 12 13 1
16 14 16 1
17 15 16 1
18 16 17 1
19 10 18 1
20 14 18 2
21 18 19 1
22 19 20 ar
23 19 24 ar
24 20 21 ar
25 21 22 ar
26 22 23 ar
27 23 24 ar
@<TRIPOS>SUBSTRUCTURE
1	RES1	1	GROUP	1 ****	RES
