# created with PyMOL 2.5.2
@<TRIPOS>MOLECULE
EGFR_5X27_TargetProtein
35 40 1                 
SMALL
USER_CHARGES
@<TRIPOS>ATOM
1	  N4	-49.053	-1.591	-11.617	N.3	1	RES1	0.000	
2	  N5	-50.569	-0.832	-13.981	N.pl3	1	RES1	0.000	
3	  N6	-53.450	1.200	-18.473	N.pl3	1	RES1	0.000	
4	  N7	-54.160	1.900	-20.563	N.2	1	RES1	0.000	
5	  N8	-53.317	0.535	-23.897	N.2	1	RES1	0.000	
6	  N9	-52.009	-1.211	-24.989	N.pl3	1	RES1	0.000	
7	 N10	-52.110	-0.855	-22.626	N.2	1	RES1	0.000	
8	 N11	-52.656	0.041	-20.424	N.2	1	RES1	0.000	
9	 C22	-48.616	-2.511	-10.545	C.3	1	RES1	0.000	
10	 C23	-50.489	-1.317	-11.534	C.3	1	RES1	0.000	
11	 C24	-50.974	-0.361	-12.641	C.3	1	RES1	0.000	
12	 C25	-51.268	-0.330	-15.098	C.2	1	RES1	0.000	
13	 C26	-52.257	0.669	-14.992	C.2	1	RES1	0.000	
14	 C27	-52.943	1.135	-16.092	C.2	1	RES1	0.000	
15	 C28	-52.691	0.663	-17.384	C.2	1	RES1	0.000	
16	 C29	-53.404	1.025	-19.865	C.2	1	RES1	0.000	
17	 C30	-54.213	1.838	-21.914	C.2	1	RES1	0.000	
18	 C31	-53.465	0.830	-22.580	C.2	1	RES1	0.000	
19	 C32	-52.488	-0.502	-23.925	C.2	1	RES1	0.000	
20	 C33	-52.123	-0.871	-26.376	C.2	1	RES1	0.000	
21	 C34	-52.069	0.428	-26.895	C.2	1	RES1	0.000	
22	 C35	-52.208	0.664	-28.264	C.2	1	RES1	0.000	
23	 C36	-52.370	-0.396	-29.119	C.2	1	RES1	0.000	
24	 C37	-52.428	-1.679	-28.667	C.2	1	RES1	0.000	
25	 C38	-52.306	-1.926	-27.295	C.2	1	RES1	0.000	
26	 C39	-51.228	-1.953	-22.158	C.3	1	RES1	0.000	
27	 C40	-50.121	-1.496	-21.217	C.3	1	RES1	0.000	
28	 C41	-49.038	-2.507	-21.371	C.3	1	RES1	0.000	
29	 C42	-49.045	-2.791	-22.874	C.3	1	RES1	0.000	
30	 C43	-50.517	-2.738	-23.252	C.3	1	RES1	0.000	
31	 C44	-52.728	0.014	-21.760	C.2	1	RES1	0.000	
32	 C45	-51.729	-0.328	-17.528	C.2	1	RES1	0.000	
33	 C46	-51.066	-0.834	-16.412	C.2	1	RES1	0.000	
34	 C47	-49.187	-1.297	-14.110	C.3	1	RES1	0.000	
35	 C48	-48.773	-2.221	-12.930	C.3	1	RES1	0.000	
@<TRIPOS>BOND
1 1 35 1
2 7 19 ar
3 7 26 1
4 7 31 ar
5 8 16 ar
6 8 31 ar
7 1 9 1
8 1 10 1
9 10 11 1
10 2 11 1
11 2 12 1
12 12 13 ar
13 12 33 ar
14 13 14 ar
15 14 15 ar
16 3 15 1
17 15 32 ar
18 3 16 1
19 4 16 ar
20 4 17 ar
21 17 18 ar
22 5 18 ar
23 18 31 ar
24 5 19 ar
25 6 19 1
26 6 20 1
27 20 21 ar
28 20 25 ar
29 21 22 ar
30 22 23 ar
31 23 24 ar
32 24 25 ar
33 26 27 1
34 26 30 1
35 27 28 1
36 28 29 1
37 29 30 1
38 32 33 ar
39 2 34 1
40 34 35 1
@<TRIPOS>SUBSTRUCTURE
1	RES1	1	GROUP	1 ****	RES
