# created with PyMOL 2.5.2
@<TRIPOS>MOLECULE
EGFR_5X27_TargetProtein
35 40 1                 
SMALL
USER_CHARGES
@<TRIPOS>ATOM
1	  N4	-49.253	-2.062	-11.719	N.3	1	RES1	0.000	
2	  N5	-50.583	-0.790	-13.982	N.pl3	1	RES1	0.000	
3	  N6	-53.472	1.249	-18.448	N.pl3	1	RES1	0.000	
4	  N7	-54.178	1.941	-20.550	N.2	1	RES1	0.000	
5	  N8	-53.315	0.515	-23.859	N.2	1	RES1	0.000	
6	  N9	-52.040	-1.194	-24.968	N.pl3	1	RES1	0.000	
7	 N10	-52.123	-0.846	-22.611	N.2	1	RES1	0.000	
8	 N11	-52.663	0.056	-20.394	N.2	1	RES1	0.000	
9	 C23	-48.292	-2.185	-10.621	C.3	1	RES1	0.000	
10	 C24	-48.555	-1.916	-13.009	C.3	1	RES1	0.000	
11	 C25	-49.540	-1.821	-14.189	C.3	1	RES1	0.000	
12	 C26	-51.310	-0.289	-15.103	C.2	1	RES1	0.000	
13	 C27	-51.112	-0.840	-16.377	C.2	1	RES1	0.000	
14	 C28	-51.795	-0.323	-17.517	C.2	1	RES1	0.000	
15	 C29	-52.748	0.694	-17.386	C.2	1	RES1	0.000	
16	 C30	-53.401	1.062	-19.866	C.2	1	RES1	0.000	
17	 C31	-54.229	1.855	-21.896	C.2	1	RES1	0.000	
18	 C32	-53.476	0.863	-22.539	C.2	1	RES1	0.000	
19	 C33	-52.495	-0.516	-23.889	C.2	1	RES1	0.000	
20	 C34	-52.136	-0.908	-26.353	C.2	1	RES1	0.000	
21	 C35	-52.073	0.423	-26.880	C.2	1	RES1	0.000	
22	 C36	-52.136	0.647	-28.255	C.2	1	RES1	0.000	
23	 C37	-52.254	-0.422	-29.146	C.2	1	RES1	0.000	
24	 C38	-52.324	-1.728	-28.644	C.2	1	RES1	0.000	
25	 C39	-52.257	-1.954	-27.282	C.2	1	RES1	0.000	
26	 C40	-51.242	-1.920	-22.144	C.3	1	RES1	0.000	
27	 C41	-50.101	-1.460	-21.180	C.3	1	RES1	0.000	
28	 C42	-48.835	-2.082	-21.729	C.3	1	RES1	0.000	
29	 C43	-49.271	-3.235	-22.578	C.3	1	RES1	0.000	
30	 C44	-50.536	-2.694	-23.253	C.3	1	RES1	0.000	
31	 C45	-52.752	0.023	-21.752	C.2	1	RES1	0.000	
32	 C46	-52.921	1.238	-16.104	C.2	1	RES1	0.000	
33	 C47	-52.224	0.775	-15.004	C.2	1	RES1	0.000	
34	 C48	-51.232	-0.831	-12.643	C.3	1	RES1	0.000	
35	 C49	-50.195	-0.934	-11.498	C.3	1	RES1	0.000	
@<TRIPOS>BOND
1 1 35 1
2 7 19 ar
3 7 26 1
4 7 31 ar
5 8 16 ar
6 8 31 ar
7 1 9 1
8 1 10 1
9 10 11 1
10 2 11 1
11 2 12 1
12 12 13 ar
13 12 33 ar
14 13 14 ar
15 14 15 ar
16 3 15 1
17 15 32 ar
18 3 16 1
19 4 16 ar
20 4 17 ar
21 17 18 ar
22 5 18 ar
23 18 31 ar
24 5 19 ar
25 6 19 1
26 6 20 1
27 20 21 ar
28 20 25 ar
29 21 22 ar
30 22 23 ar
31 23 24 ar
32 24 25 ar
33 26 27 1
34 26 30 1
35 27 28 1
36 28 29 1
37 29 30 1
38 32 33 ar
39 2 34 1
40 34 35 1
@<TRIPOS>SUBSTRUCTURE
1	RES1	1	GROUP	1 ****	RES
