# created with PyMOL 2.5.2
@<TRIPOS>MOLECULE
EGFR_5X27_TargetProtein
35 40 1                 
SMALL
USER_CHARGES
@<TRIPOS>ATOM
1	  N4	-49.007	-1.621	-11.689	N.3	1	RES1	0.000	
2	  N5	-50.588	-0.820	-13.961	N.pl3	1	RES1	0.000	
3	  N6	-53.483	1.209	-18.469	N.pl3	1	RES1	0.000	
4	  N7	-54.178	1.914	-20.571	N.2	1	RES1	0.000	
5	  N8	-53.286	0.545	-23.880	N.2	1	RES1	0.000	
6	  N9	-51.996	-1.219	-24.991	N.pl3	1	RES1	0.000	
7	 N10	-52.136	-0.857	-22.626	N.2	1	RES1	0.000	
8	 N11	-52.691	0.045	-20.408	N.2	1	RES1	0.000	
9	 C23	-48.540	-2.511	-10.605	C.3	1	RES1	0.000	
10	 C24	-50.417	-1.296	-11.536	C.3	1	RES1	0.000	
11	 C25	-50.929	-0.321	-12.593	C.3	1	RES1	0.000	
12	 C26	-51.308	-0.325	-15.106	C.2	1	RES1	0.000	
13	 C27	-52.249	0.689	-14.978	C.2	1	RES1	0.000	
14	 C28	-52.954	1.190	-16.097	C.2	1	RES1	0.000	
15	 C29	-52.739	0.663	-17.396	C.2	1	RES1	0.000	
16	 C30	-53.447	1.029	-19.856	C.2	1	RES1	0.000	
17	 C31	-54.204	1.824	-21.924	C.2	1	RES1	0.000	
18	 C32	-53.454	0.861	-22.550	C.2	1	RES1	0.000	
19	 C33	-52.481	-0.501	-23.896	C.2	1	RES1	0.000	
20	 C34	-52.097	-0.867	-26.372	C.2	1	RES1	0.000	
21	 C35	-52.024	0.425	-26.873	C.2	1	RES1	0.000	
22	 C36	-52.137	0.674	-28.242	C.2	1	RES1	0.000	
23	 C37	-52.323	-0.402	-29.144	C.2	1	RES1	0.000	
24	 C38	-52.384	-1.685	-28.654	C.2	1	RES1	0.000	
25	 C39	-52.296	-1.942	-27.280	C.2	1	RES1	0.000	
26	 C40	-51.227	-1.960	-22.143	C.3	1	RES1	0.000	
27	 C41	-50.142	-1.517	-21.162	C.3	1	RES1	0.000	
28	 C42	-48.853	-2.114	-21.710	C.3	1	RES1	0.000	
29	 C43	-49.288	-3.232	-22.613	C.3	1	RES1	0.000	
30	 C44	-50.536	-2.738	-23.253	C.3	1	RES1	0.000	
31	 C45	-52.757	0.011	-21.757	C.2	1	RES1	0.000	
32	 C46	-51.806	-0.364	-17.501	C.2	1	RES1	0.000	
33	 C47	-51.118	-0.836	-16.381	C.2	1	RES1	0.000	
34	 C48	-49.207	-1.317	-14.155	C.3	1	RES1	0.000	
35	 C49	-48.786	-2.241	-12.995	C.3	1	RES1	0.000	
@<TRIPOS>BOND
1 1 35 1
2 7 19 ar
3 7 26 1
4 7 31 ar
5 8 16 ar
6 8 31 ar
7 1 9 1
8 1 10 1
9 10 11 1
10 2 11 1
11 2 12 1
12 12 13 ar
13 12 33 ar
14 13 14 ar
15 14 15 ar
16 3 15 1
17 15 32 ar
18 3 16 1
19 4 16 ar
20 4 17 ar
21 17 18 ar
22 5 18 ar
23 18 31 ar
24 5 19 ar
25 6 19 1
26 6 20 1
27 20 21 ar
28 20 25 ar
29 21 22 ar
30 22 23 ar
31 23 24 ar
32 24 25 ar
33 26 27 1
34 26 30 1
35 27 28 1
36 28 29 1
37 29 30 1
38 32 33 ar
39 2 34 1
40 34 35 1
@<TRIPOS>SUBSTRUCTURE
1	RES1	1	GROUP	1 ****	RES
