# created with PyMOL 2.5.2
@<TRIPOS>MOLECULE
EGFR_5X27_TargetProtein
35 40 1                 
SMALL
USER_CHARGES
@<TRIPOS>ATOM
1	  N4	-49.099	-2.053	-11.890	N.3	1	RES1	0.000	
2	  N5	-50.453	-0.876	-14.135	N.pl3	1	RES1	0.000	
3	  N6	-53.517	1.068	-18.573	N.pl3	1	RES1	0.000	
4	  N7	-54.255	1.779	-20.650	N.2	1	RES1	0.000	
5	  N8	-53.290	0.519	-23.979	N.2	1	RES1	0.000	
6	  N9	-51.892	-1.101	-25.133	N.pl3	1	RES1	0.000	
7	 N10	-51.971	-0.788	-22.764	N.2	1	RES1	0.000	
8	 N11	-52.613	0.003	-20.539	N.2	1	RES1	0.000	
9	 C23	-48.136	-2.096	-10.774	C.3	1	RES1	0.000	
10	 C24	-48.399	-1.882	-13.172	C.3	1	RES1	0.000	
11	 C25	-49.369	-1.877	-14.350	C.3	1	RES1	0.000	
12	 C26	-51.236	-0.417	-15.289	C.2	1	RES1	0.000	
13	 C27	-51.073	-0.947	-16.568	C.2	1	RES1	0.000	
14	 C28	-51.804	-0.472	-17.641	C.2	1	RES1	0.000	
15	 C29	-52.770	0.520	-17.501	C.2	1	RES1	0.000	
16	 C30	-53.448	0.915	-19.973	C.2	1	RES1	0.000	
17	 C31	-54.275	1.721	-22.000	C.2	1	RES1	0.000	
18	 C32	-53.467	0.820	-22.667	C.2	1	RES1	0.000	
19	 C33	-52.396	-0.461	-24.031	C.2	1	RES1	0.000	
20	 C34	-52.048	-0.777	-26.513	C.2	1	RES1	0.000	
21	 C35	-52.090	0.556	-27.004	C.2	1	RES1	0.000	
22	 C36	-52.250	0.823	-28.367	C.2	1	RES1	0.000	
23	 C37	-52.350	-0.242	-29.264	C.2	1	RES1	0.000	
24	 C38	-52.277	-1.554	-28.812	C.2	1	RES1	0.000	
25	 C39	-52.157	-1.804	-27.443	C.2	1	RES1	0.000	
26	 C40	-50.934	-1.751	-22.358	C.3	1	RES1	0.000	
27	 C41	-51.390	-2.817	-21.341	C.3	1	RES1	0.000	
28	 C42	-50.151	-3.197	-20.625	C.3	1	RES1	0.000	
29	 C43	-49.393	-1.894	-20.480	C.3	1	RES1	0.000	
30	 C44	-49.656	-1.135	-21.776	C.3	1	RES1	0.000	
31	 C45	-52.670	-0.016	-21.875	C.2	1	RES1	0.000	
32	 C46	-52.916	1.063	-16.227	C.2	1	RES1	0.000	
33	 C47	-52.169	0.619	-15.142	C.2	1	RES1	0.000	
34	 C48	-51.108	-0.900	-12.818	C.3	1	RES1	0.000	
35	 C49	-50.050	-0.960	-11.694	C.3	1	RES1	0.000	
@<TRIPOS>BOND
1 1 35 1
2 7 19 ar
3 7 26 1
4 7 31 ar
5 8 16 ar
6 8 31 ar
7 1 9 1
8 1 10 1
9 10 11 1
10 2 11 1
11 2 12 1
12 12 13 ar
13 12 33 ar
14 13 14 ar
15 14 15 ar
16 3 15 1
17 15 32 ar
18 3 16 1
19 4 16 ar
20 4 17 ar
21 17 18 ar
22 5 18 ar
23 18 31 ar
24 5 19 ar
25 6 19 1
26 6 20 1
27 20 21 ar
28 20 25 ar
29 21 22 ar
30 22 23 ar
31 23 24 ar
32 24 25 ar
33 26 27 1
34 26 30 1
35 27 28 1
36 28 29 1
37 29 30 1
38 32 33 ar
39 2 34 1
40 34 35 1
@<TRIPOS>SUBSTRUCTURE
1	RES1	1	GROUP	1 ****	RES
