# created with PyMOL 2.5.2
@<TRIPOS>MOLECULE
EGFR_5X27_TargetProtein
35 40 1                 
SMALL
USER_CHARGES
@<TRIPOS>ATOM
1	  N4	-49.035	-1.568	-11.637	N.3	1	RES1	0.000	
2	  N5	-50.589	-0.844	-13.963	N.pl3	1	RES1	0.000	
3	  N6	-53.444	1.198	-18.463	N.pl3	1	RES1	0.000	
4	  N7	-54.168	1.903	-20.564	N.2	1	RES1	0.000	
5	  N8	-53.340	0.497	-23.874	N.2	1	RES1	0.000	
6	  N9	-52.053	-1.235	-24.994	N.pl3	1	RES1	0.000	
7	 N10	-52.144	-0.859	-22.613	N.2	1	RES1	0.000	
8	 N11	-52.692	0.052	-20.411	N.2	1	RES1	0.000	
9	 C21	-48.646	-2.476	-10.518	C.3	1	RES1	0.000	
10	 C22	-50.475	-1.237	-11.502	C.3	1	RES1	0.000	
11	 C23	-50.938	-0.309	-12.640	C.3	1	RES1	0.000	
12	 C24	-51.275	-0.340	-15.099	C.2	1	RES1	0.000	
13	 C25	-51.095	-0.860	-16.399	C.2	1	RES1	0.000	
14	 C26	-51.766	-0.385	-17.499	C.2	1	RES1	0.000	
15	 C27	-52.713	0.659	-17.368	C.2	1	RES1	0.000	
16	 C28	-53.403	1.011	-19.856	C.2	1	RES1	0.000	
17	 C29	-54.235	1.817	-21.895	C.2	1	RES1	0.000	
18	 C30	-53.502	0.814	-22.542	C.2	1	RES1	0.000	
19	 C31	-52.540	-0.542	-23.906	C.2	1	RES1	0.000	
20	 C32	-52.134	-0.896	-26.385	C.2	1	RES1	0.000	
21	 C33	-52.054	0.418	-26.831	C.2	1	RES1	0.000	
22	 C34	-52.125	0.710	-28.228	C.2	1	RES1	0.000	
23	 C35	-52.279	-0.333	-29.121	C.2	1	RES1	0.000	
24	 C36	-52.360	-1.638	-28.663	C.2	1	RES1	0.000	
25	 C37	-52.274	-1.910	-27.295	C.2	1	RES1	0.000	
26	 C38	-51.215	-1.956	-22.153	C.3	1	RES1	0.000	
27	 C39	-50.089	-1.523	-21.239	C.3	1	RES1	0.000	
28	 C40	-48.793	-2.107	-21.841	C.3	1	RES1	0.000	
29	 C41	-49.296	-3.271	-22.694	C.3	1	RES1	0.000	
30	 C42	-50.557	-2.704	-23.303	C.3	1	RES1	0.000	
31	 C43	-52.770	-0.020	-21.758	C.2	1	RES1	0.000	
32	 C44	-52.908	1.178	-16.098	C.2	1	RES1	0.000	
33	 C45	-52.207	0.667	-14.985	C.2	1	RES1	0.000	
34	 C46	-49.185	-1.312	-14.112	C.3	1	RES1	0.000	
35	 C47	-48.767	-2.209	-12.917	C.3	1	RES1	0.000	
@<TRIPOS>BOND
1 1 35 1
2 7 19 ar
3 7 26 1
4 7 31 ar
5 8 16 ar
6 8 31 ar
7 1 9 1
8 1 10 1
9 10 11 1
10 2 11 1
11 2 12 1
12 12 13 ar
13 12 33 ar
14 13 14 ar
15 14 15 ar
16 3 15 1
17 15 32 ar
18 3 16 1
19 4 16 ar
20 4 17 ar
21 17 18 ar
22 5 18 ar
23 18 31 ar
24 5 19 ar
25 6 19 1
26 6 20 1
27 20 21 ar
28 20 25 ar
29 21 22 ar
30 22 23 ar
31 23 24 ar
32 24 25 ar
33 26 27 1
34 26 30 1
35 27 28 1
36 28 29 1
37 29 30 1
38 32 33 ar
39 2 34 1
40 34 35 1
@<TRIPOS>SUBSTRUCTURE
1	RES1	1	GROUP	1 ****	RES
