# created with PyMOL 2.5.2
@<TRIPOS>MOLECULE
EGFR_5X27_TargetProtein
35 40 1                 
SMALL
USER_CHARGES
@<TRIPOS>ATOM
1	  N4	-48.935	-1.674	-11.730	N.3	1	RES1	0.000	
2	  N5	-50.617	-0.781	-13.941	N.pl3	1	RES1	0.000	
3	  N6	-53.540	1.176	-18.452	N.pl3	1	RES1	0.000	
4	  N7	-54.223	1.868	-20.545	N.2	1	RES1	0.000	
5	  N8	-53.322	0.507	-23.870	N.2	1	RES1	0.000	
6	  N9	-52.017	-1.197	-24.978	N.pl3	1	RES1	0.000	
7	 N10	-52.121	-0.856	-22.596	N.2	1	RES1	0.000	
8	 N11	-52.711	0.026	-20.413	N.2	1	RES1	0.000	
9	 C21	-48.563	-2.517	-10.589	C.3	1	RES1	0.000	
10	 C22	-49.062	-2.497	-12.991	C.3	1	RES1	0.000	
11	 C23	-49.407	-1.638	-14.194	C.3	1	RES1	0.000	
12	 C24	-51.300	-0.286	-15.104	C.2	1	RES1	0.000	
13	 C25	-51.006	-0.701	-16.404	C.2	1	RES1	0.000	
14	 C26	-51.704	-0.253	-17.528	C.2	1	RES1	0.000	
15	 C27	-52.750	0.658	-17.379	C.2	1	RES1	0.000	
16	 C28	-53.476	0.984	-19.856	C.2	1	RES1	0.000	
17	 C29	-54.236	1.800	-21.902	C.2	1	RES1	0.000	
18	 C30	-53.496	0.828	-22.554	C.2	1	RES1	0.000	
19	 C31	-52.507	-0.520	-23.883	C.2	1	RES1	0.000	
20	 C32	-52.100	-0.878	-26.354	C.2	1	RES1	0.000	
21	 C33	-52.040	0.437	-26.867	C.2	1	RES1	0.000	
22	 C34	-52.117	0.699	-28.234	C.2	1	RES1	0.000	
23	 C35	-52.262	-0.360	-29.117	C.2	1	RES1	0.000	
24	 C36	-52.295	-1.667	-28.653	C.2	1	RES1	0.000	
25	 C37	-52.219	-1.911	-27.282	C.2	1	RES1	0.000	
26	 C38	-51.223	-1.939	-22.134	C.3	1	RES1	0.000	
27	 C39	-50.101	-1.477	-21.195	C.3	1	RES1	0.000	
28	 C40	-48.816	-2.112	-21.772	C.3	1	RES1	0.000	
29	 C41	-49.284	-3.267	-22.620	C.3	1	RES1	0.000	
30	 C42	-50.566	-2.755	-23.243	C.3	1	RES1	0.000	
31	 C43	-52.769	0.009	-21.747	C.2	1	RES1	0.000	
32	 C44	-53.104	1.075	-16.086	C.2	1	RES1	0.000	
33	 C45	-52.370	0.611	-14.959	C.2	1	RES1	0.000	
34	 C46	-50.592	-0.043	-12.692	C.3	1	RES1	0.000	
35	 C47	-50.215	-0.955	-11.502	C.3	1	RES1	0.000	
@<TRIPOS>BOND
1 1 35 1
2 7 19 ar
3 7 26 1
4 7 31 ar
5 8 16 ar
6 8 31 ar
7 1 9 1
8 1 10 1
9 10 11 1
10 2 11 1
11 2 12 1
12 12 13 ar
13 12 33 ar
14 13 14 ar
15 14 15 ar
16 3 15 1
17 15 32 ar
18 3 16 1
19 4 16 ar
20 4 17 ar
21 17 18 ar
22 5 18 ar
23 18 31 ar
24 5 19 ar
25 6 19 1
26 6 20 1
27 20 21 ar
28 20 25 ar
29 21 22 ar
30 22 23 ar
31 23 24 ar
32 24 25 ar
33 26 27 1
34 26 30 1
35 27 28 1
36 28 29 1
37 29 30 1
38 32 33 ar
39 2 34 1
40 34 35 1
@<TRIPOS>SUBSTRUCTURE
1	RES1	1	GROUP	1 ****	RES
