# created with PyMOL 2.5.2
@<TRIPOS>MOLECULE
EGFR_5X27_TargetProtein
35 40 1                 
SMALL
USER_CHARGES
@<TRIPOS>ATOM
1	  N4	-49.305	-2.025	-11.648	N.3	1	RES1	0.000	
2	  N5	-50.556	-0.802	-13.953	N.pl3	1	RES1	0.000	
3	  N6	-53.424	1.233	-18.461	N.pl3	1	RES1	0.000	
4	  N7	-54.161	1.927	-20.546	N.2	1	RES1	0.000	
5	  N8	-53.329	0.513	-23.867	N.2	1	RES1	0.000	
6	  N9	-52.064	-1.211	-24.971	N.pl3	1	RES1	0.000	
7	 N10	-52.140	-0.859	-22.600	N.2	1	RES1	0.000	
8	 N11	-52.663	0.055	-20.409	N.2	1	RES1	0.000	
9	 C21	-48.392	-2.106	-10.508	C.3	1	RES1	0.000	
10	 C22	-48.542	-1.870	-12.912	C.3	1	RES1	0.000	
11	 C23	-49.498	-1.795	-14.148	C.3	1	RES1	0.000	
12	 C24	-51.258	-0.335	-15.105	C.2	1	RES1	0.000	
13	 C25	-52.221	0.681	-14.997	C.2	1	RES1	0.000	
14	 C26	-52.920	1.167	-16.096	C.2	1	RES1	0.000	
15	 C27	-52.689	0.688	-17.364	C.2	1	RES1	0.000	
16	 C28	-53.385	1.061	-19.850	C.2	1	RES1	0.000	
17	 C29	-54.213	1.836	-21.900	C.2	1	RES1	0.000	
18	 C30	-53.484	0.867	-22.565	C.2	1	RES1	0.000	
19	 C31	-52.531	-0.514	-23.892	C.2	1	RES1	0.000	
20	 C32	-52.147	-0.916	-26.373	C.2	1	RES1	0.000	
21	 C33	-52.063	0.428	-26.874	C.2	1	RES1	0.000	
22	 C34	-52.140	0.666	-28.246	C.2	1	RES1	0.000	
23	 C35	-52.282	-0.392	-29.117	C.2	1	RES1	0.000	
24	 C36	-52.365	-1.699	-28.647	C.2	1	RES1	0.000	
25	 C37	-52.292	-1.938	-27.284	C.2	1	RES1	0.000	
26	 C38	-51.220	-1.922	-22.160	C.3	1	RES1	0.000	
27	 C39	-50.101	-1.523	-21.222	C.3	1	RES1	0.000	
28	 C40	-48.829	-2.084	-21.792	C.3	1	RES1	0.000	
29	 C41	-49.273	-3.193	-22.711	C.3	1	RES1	0.000	
30	 C42	-50.539	-2.680	-23.325	C.3	1	RES1	0.000	
31	 C43	-52.747	-0.012	-21.752	C.2	1	RES1	0.000	
32	 C44	-51.724	-0.302	-17.501	C.2	1	RES1	0.000	
33	 C45	-51.018	-0.788	-16.423	C.2	1	RES1	0.000	
34	 C46	-51.272	-0.841	-12.657	C.3	1	RES1	0.000	
35	 C47	-50.277	-0.924	-11.493	C.3	1	RES1	0.000	
@<TRIPOS>BOND
1 1 35 1
2 7 19 ar
3 7 26 1
4 7 31 ar
5 8 16 ar
6 8 31 ar
7 1 9 1
8 1 10 1
9 10 11 1
10 2 11 1
11 2 12 1
12 12 13 ar
13 12 33 ar
14 13 14 ar
15 14 15 ar
16 3 15 1
17 15 32 ar
18 3 16 1
19 4 16 ar
20 4 17 ar
21 17 18 ar
22 5 18 ar
23 18 31 ar
24 5 19 ar
25 6 19 1
26 6 20 1
27 20 21 ar
28 20 25 ar
29 21 22 ar
30 22 23 ar
31 23 24 ar
32 24 25 ar
33 26 27 1
34 26 30 1
35 27 28 1
36 28 29 1
37 29 30 1
38 32 33 ar
39 2 34 1
40 34 35 1
@<TRIPOS>SUBSTRUCTURE
1	RES1	1	GROUP	1 ****	RES
