# created with PyMOL 2.5.2
@<TRIPOS>MOLECULE
EGFR_5X27_TargetProtein
35 40 1                 
SMALL
USER_CHARGES
@<TRIPOS>ATOM
1	  N4	-49.310	-1.951	-11.612	N.3	1	RES1	0.000	
2	  N5	-50.566	-0.819	-13.968	N.pl3	1	RES1	0.000	
3	  N6	-53.479	1.190	-18.467	N.pl3	1	RES1	0.000	
4	  N7	-54.187	1.871	-20.555	N.2	1	RES1	0.000	
5	  N8	-53.313	0.512	-23.885	N.2	1	RES1	0.000	
6	  N9	-51.995	-1.202	-24.999	N.pl3	1	RES1	0.000	
7	 N10	-52.099	-0.867	-22.619	N.2	1	RES1	0.000	
8	 N11	-52.681	0.041	-20.416	N.2	1	RES1	0.000	
9	 C23	-48.264	-2.088	-10.588	C.3	1	RES1	0.000	
10	 C24	-49.963	-0.636	-11.544	C.3	1	RES1	0.000	
11	 C25	-51.076	-0.460	-12.611	C.3	1	RES1	0.000	
12	 C26	-51.284	-0.310	-15.118	C.2	1	RES1	0.000	
13	 C27	-51.007	-0.764	-16.421	C.2	1	RES1	0.000	
14	 C28	-51.714	-0.285	-17.520	C.2	1	RES1	0.000	
15	 C29	-52.721	0.653	-17.398	C.2	1	RES1	0.000	
16	 C30	-53.426	1.008	-19.863	C.2	1	RES1	0.000	
17	 C31	-54.204	1.821	-21.923	C.2	1	RES1	0.000	
18	 C32	-53.485	0.838	-22.552	C.2	1	RES1	0.000	
19	 C33	-52.480	-0.529	-23.914	C.2	1	RES1	0.000	
20	 C34	-52.092	-0.858	-26.358	C.2	1	RES1	0.000	
21	 C35	-52.042	0.452	-26.880	C.2	1	RES1	0.000	
22	 C36	-52.148	0.723	-28.229	C.2	1	RES1	0.000	
23	 C37	-52.313	-0.336	-29.126	C.2	1	RES1	0.000	
24	 C38	-52.391	-1.632	-28.650	C.2	1	RES1	0.000	
25	 C39	-52.292	-1.901	-27.281	C.2	1	RES1	0.000	
26	 C40	-51.216	-1.953	-22.157	C.3	1	RES1	0.000	
27	 C41	-50.109	-1.496	-21.230	C.3	1	RES1	0.000	
28	 C42	-49.012	-2.535	-21.431	C.3	1	RES1	0.000	
29	 C43	-49.040	-2.817	-22.914	C.3	1	RES1	0.000	
30	 C44	-50.559	-2.769	-23.267	C.3	1	RES1	0.000	
31	 C45	-52.761	-0.006	-21.760	C.2	1	RES1	0.000	
32	 C46	-53.012	1.095	-16.080	C.2	1	RES1	0.000	
33	 C47	-52.310	0.634	-14.983	C.2	1	RES1	0.000	
34	 C48	-49.792	-2.064	-14.086	C.3	1	RES1	0.000	
35	 C49	-48.720	-2.164	-12.964	C.3	1	RES1	0.000	
@<TRIPOS>BOND
1 1 35 1
2 7 19 ar
3 7 26 1
4 7 31 ar
5 8 16 ar
6 8 31 ar
7 1 9 1
8 1 10 1
9 10 11 1
10 2 11 1
11 2 12 1
12 12 13 ar
13 12 33 ar
14 13 14 ar
15 14 15 ar
16 3 15 1
17 15 32 ar
18 3 16 1
19 4 16 ar
20 4 17 ar
21 17 18 ar
22 5 18 ar
23 18 31 ar
24 5 19 ar
25 6 19 1
26 6 20 1
27 20 21 ar
28 20 25 ar
29 21 22 ar
30 22 23 ar
31 23 24 ar
32 24 25 ar
33 26 27 1
34 26 30 1
35 27 28 1
36 28 29 1
37 29 30 1
38 32 33 ar
39 2 34 1
40 34 35 1
@<TRIPOS>SUBSTRUCTURE
1	RES1	1	GROUP	1 ****	RES
