# created with PyMOL 2.5.2
@<TRIPOS>MOLECULE
EGFR_5X27_TargetProtein
35 40 1                 
SMALL
USER_CHARGES
@<TRIPOS>ATOM
1	  N4	-48.847	-1.609	-11.854	N.3	1	RES1	0.000	
2	  N5	-50.461	-0.882	-14.131	N.pl3	1	RES1	0.000	
3	  N6	-53.520	1.046	-18.554	N.pl3	1	RES1	0.000	
4	  N7	-54.331	1.652	-20.652	N.2	1	RES1	0.000	
5	  N8	-53.309	0.450	-23.997	N.2	1	RES1	0.000	
6	  N9	-51.806	-1.036	-25.153	N.pl3	1	RES1	0.000	
7	 N10	-51.974	-0.788	-22.738	N.2	1	RES1	0.000	
8	 N11	-52.579	0.042	-20.530	N.2	1	RES1	0.000	
9	 C23	-48.322	-2.468	-10.791	C.3	1	RES1	0.000	
10	 C24	-50.296	-1.385	-11.725	C.3	1	RES1	0.000	
11	 C25	-50.870	-0.454	-12.789	C.3	1	RES1	0.000	
12	 C26	-51.211	-0.421	-15.274	C.2	1	RES1	0.000	
13	 C27	-50.974	-0.841	-16.582	C.2	1	RES1	0.000	
14	 C28	-51.692	-0.397	-17.669	C.2	1	RES1	0.000	
15	 C29	-52.728	0.558	-17.516	C.2	1	RES1	0.000	
16	 C30	-53.469	0.887	-19.972	C.2	1	RES1	0.000	
17	 C31	-54.366	1.603	-22.007	C.2	1	RES1	0.000	
18	 C32	-53.507	0.733	-22.663	C.2	1	RES1	0.000	
19	 C33	-52.375	-0.444	-24.032	C.2	1	RES1	0.000	
20	 C34	-51.987	-0.704	-26.506	C.2	1	RES1	0.000	
21	 C35	-52.088	0.619	-26.996	C.2	1	RES1	0.000	
22	 C36	-52.290	0.872	-28.359	C.2	1	RES1	0.000	
23	 C37	-52.355	-0.176	-29.265	C.2	1	RES1	0.000	
24	 C38	-52.241	-1.509	-28.809	C.2	1	RES1	0.000	
25	 C39	-52.031	-1.752	-27.446	C.2	1	RES1	0.000	
26	 C40	-50.973	-1.834	-22.379	C.3	1	RES1	0.000	
27	 C41	-51.522	-2.877	-21.369	C.3	1	RES1	0.000	
28	 C42	-50.492	-2.931	-20.263	C.3	1	RES1	0.000	
29	 C43	-49.228	-2.386	-20.850	C.3	1	RES1	0.000	
30	 C44	-49.720	-1.290	-21.750	C.3	1	RES1	0.000	
31	 C45	-52.662	-0.013	-21.880	C.2	1	RES1	0.000	
32	 C46	-52.991	0.983	-16.221	C.2	1	RES1	0.000	
33	 C47	-52.262	0.536	-15.127	C.2	1	RES1	0.000	
34	 C48	-49.040	-1.227	-14.311	C.3	1	RES1	0.000	
35	 C49	-48.551	-2.165	-13.205	C.3	1	RES1	0.000	
@<TRIPOS>BOND
1 1 35 1
2 7 19 ar
3 7 26 1
4 7 31 ar
5 8 16 ar
6 8 31 ar
7 1 9 1
8 1 10 1
9 10 11 1
10 2 11 1
11 2 12 1
12 12 13 ar
13 12 33 ar
14 13 14 ar
15 14 15 ar
16 3 15 1
17 15 32 ar
18 3 16 1
19 4 16 ar
20 4 17 ar
21 17 18 ar
22 5 18 ar
23 18 31 ar
24 5 19 ar
25 6 19 1
26 6 20 1
27 20 21 ar
28 20 25 ar
29 21 22 ar
30 22 23 ar
31 23 24 ar
32 24 25 ar
33 26 27 1
34 26 30 1
35 27 28 1
36 28 29 1
37 29 30 1
38 32 33 ar
39 2 34 1
40 34 35 1
@<TRIPOS>SUBSTRUCTURE
1	RES1	1	GROUP	1 ****	RES
