# created with PyMOL 2.5.2
@<TRIPOS>MOLECULE
EGFR_5X27_TargetProtein
35 40 1                 
SMALL
USER_CHARGES
@<TRIPOS>ATOM
1	  N4	-49.157	-2.035	-11.841	N.3	1	RES1	0.000	
2	  N5	-50.479	-0.892	-14.137	N.pl3	1	RES1	0.000	
3	  N6	-53.509	1.058	-18.560	N.pl3	1	RES1	0.000	
4	  N7	-54.242	1.747	-20.680	N.2	1	RES1	0.000	
5	  N8	-53.261	0.508	-23.999	N.2	1	RES1	0.000	
6	  N9	-51.851	-1.099	-25.127	N.pl3	1	RES1	0.000	
7	 N10	-51.929	-0.766	-22.783	N.2	1	RES1	0.000	
8	 N11	-52.615	0.041	-20.549	N.2	1	RES1	0.000	
9	 C23	-48.119	-2.137	-10.813	C.3	1	RES1	0.000	
10	 C24	-49.843	-0.731	-11.751	C.3	1	RES1	0.000	
11	 C25	-50.978	-0.576	-12.771	C.3	1	RES1	0.000	
12	 C26	-51.238	-0.419	-15.285	C.2	1	RES1	0.000	
13	 C27	-50.965	-0.839	-16.582	C.2	1	RES1	0.000	
14	 C28	-51.704	-0.354	-17.696	C.2	1	RES1	0.000	
15	 C29	-52.739	0.538	-17.496	C.2	1	RES1	0.000	
16	 C30	-53.438	0.904	-19.979	C.2	1	RES1	0.000	
17	 C31	-54.258	1.690	-22.025	C.2	1	RES1	0.000	
18	 C32	-53.445	0.790	-22.673	C.2	1	RES1	0.000	
19	 C33	-52.367	-0.436	-24.037	C.2	1	RES1	0.000	
20	 C34	-52.037	-0.751	-26.516	C.2	1	RES1	0.000	
21	 C35	-52.100	0.550	-27.019	C.2	1	RES1	0.000	
22	 C36	-52.297	0.784	-28.371	C.2	1	RES1	0.000	
23	 C37	-52.438	-0.279	-29.264	C.2	1	RES1	0.000	
24	 C38	-52.406	-1.572	-28.759	C.2	1	RES1	0.000	
25	 C39	-52.187	-1.786	-27.424	C.2	1	RES1	0.000	
26	 C40	-50.875	-1.720	-22.368	C.3	1	RES1	0.000	
27	 C41	-51.325	-2.775	-21.377	C.3	1	RES1	0.000	
28	 C42	-50.074	-3.166	-20.628	C.3	1	RES1	0.000	
29	 C43	-49.359	-1.848	-20.460	C.3	1	RES1	0.000	
30	 C44	-49.613	-1.078	-21.740	C.3	1	RES1	0.000	
31	 C45	-52.646	-0.001	-21.889	C.2	1	RES1	0.000	
32	 C46	-53.026	0.935	-16.211	C.2	1	RES1	0.000	
33	 C47	-52.276	0.459	-15.115	C.2	1	RES1	0.000	
34	 C48	-49.666	-2.123	-14.268	C.3	1	RES1	0.000	
35	 C49	-48.605	-2.225	-13.174	C.3	1	RES1	0.000	
@<TRIPOS>BOND
1 1 35 1
2 7 19 ar
3 7 26 1
4 7 31 ar
5 8 16 ar
6 8 31 ar
7 1 9 1
8 1 10 1
9 10 11 1
10 2 11 1
11 2 12 1
12 12 13 ar
13 12 33 ar
14 13 14 ar
15 14 15 ar
16 3 15 1
17 15 32 ar
18 3 16 1
19 4 16 ar
20 4 17 ar
21 17 18 ar
22 5 18 ar
23 18 31 ar
24 5 19 ar
25 6 19 1
26 6 20 1
27 20 21 ar
28 20 25 ar
29 21 22 ar
30 22 23 ar
31 23 24 ar
32 24 25 ar
33 26 27 1
34 26 30 1
35 27 28 1
36 28 29 1
37 29 30 1
38 32 33 ar
39 2 34 1
40 34 35 1
@<TRIPOS>SUBSTRUCTURE
1	RES1	1	GROUP	1 ****	RES
