# created with PyMOL 2.5.2
@<TRIPOS>MOLECULE
BRD4_6YQN_TargetProtein
24 27 1                 
SMALL
USER_CHARGES
@<TRIPOS>ATOM
1	 CL1	25.749	17.902	-6.996	Cl	1	RES1	0.000	
2	  C1	26.029	15.101	1.295	C.3	1	RES1	0.000	
3	  N1	30.794	16.825	-0.008	N.2	1	RES1	0.000	
4	  S1	28.508	16.308	1.360	S.2	1	RES1	0.000	
5	  C2	27.234	15.502	0.532	C.2	1	RES1	0.000	
6	  N2	32.719	17.772	0.562	N.2	1	RES1	0.000	
7	  C3	27.527	15.302	-0.799	C.2	1	RES1	0.000	
8	  N3	32.933	16.971	-0.536	N.2	1	RES1	0.000	
9	  C4	26.609	14.550	-1.743	C.3	1	RES1	0.000	
10	  C5	28.793	15.880	-1.195	C.2	1	RES1	0.000	
11	  C6	29.467	16.376	-0.072	C.2	1	RES1	0.000	
12	  C7	31.428	17.693	0.873	C.2	1	RES1	0.000	
13	  C8	30.807	18.502	1.931	C.3	1	RES1	0.000	
14	  N8	30.583	15.750	-2.882	N.2	1	RES1	0.000	
15	  C9	31.764	16.388	-0.837	C.2	1	RES1	0.000	
16	 C10	31.556	15.316	-1.848	C.3	1	RES1	0.000	
17	 C11	32.830	14.960	-2.597	C.3	1	RES1	0.000	
18	 C36	29.333	16.015	-2.548	C.2	1	RES1	0.000	
19	 C37	28.410	16.462	-3.631	C.2	1	RES1	0.000	
20	 C38	27.304	17.293	-3.361	C.2	1	RES1	0.000	
21	 C39	26.464	17.719	-4.396	C.2	1	RES1	0.000	
22	 C40	26.780	17.383	-5.705	C.2	1	RES1	0.000	
23	 C41	27.871	16.586	-6.019	C.2	1	RES1	0.000	
24	 C42	28.712	16.125	-4.993	C.2	1	RES1	0.000	
@<TRIPOS>BOND
1 1 22 1
2 2 5 1
3 3 11 1
4 3 12 ar
5 3 15 ar
6 4 5 ar
7 4 11 ar
8 5 7 ar
9 6 8 ar
10 6 12 ar
11 7 9 1
12 7 10 ar
13 8 15 ar
14 10 11 ar
15 12 13 1
16 14 16 1
17 15 16 1
18 16 17 1
19 10 18 1
20 14 18 2
21 18 19 1
22 19 20 ar
23 19 24 ar
24 20 21 ar
25 21 22 ar
26 22 23 ar
27 23 24 ar
@<TRIPOS>SUBSTRUCTURE
1	RES1	1	GROUP	1 ****	RES
