# created with PyMOL 2.5.2
@<TRIPOS>MOLECULE
EGFR_5X27_TargetProtein
35 40 1                 
SMALL
USER_CHARGES
@<TRIPOS>ATOM
1	  N4	-48.983	-1.614	-11.676	N.3	1	RES1	0.000	
2	  N5	-50.581	-0.838	-13.965	N.pl3	1	RES1	0.000	
3	  N6	-53.497	1.179	-18.471	N.pl3	1	RES1	0.000	
4	  N7	-54.202	1.872	-20.564	N.2	1	RES1	0.000	
5	  N8	-53.310	0.503	-23.871	N.2	1	RES1	0.000	
6	  N9	-51.992	-1.202	-24.996	N.pl3	1	RES1	0.000	
7	 N10	-52.110	-0.877	-22.624	N.2	1	RES1	0.000	
8	 N11	-52.693	0.012	-20.418	N.2	1	RES1	0.000	
9	 C25	-48.644	-2.440	-10.506	C.3	1	RES1	0.000	
10	 C26	-49.007	-2.454	-12.903	C.3	1	RES1	0.000	
11	 C27	-49.361	-1.627	-14.166	C.3	1	RES1	0.000	
12	 C28	-51.306	-0.345	-15.092	C.2	1	RES1	0.000	
13	 C29	-50.979	-0.756	-16.412	C.2	1	RES1	0.000	
14	 C30	-51.703	-0.296	-17.512	C.2	1	RES1	0.000	
15	 C31	-52.741	0.653	-17.393	C.2	1	RES1	0.000	
16	 C32	-53.433	0.996	-19.853	C.2	1	RES1	0.000	
17	 C33	-54.236	1.808	-21.905	C.2	1	RES1	0.000	
18	 C34	-53.485	0.832	-22.567	C.2	1	RES1	0.000	
19	 C35	-52.494	-0.499	-23.915	C.2	1	RES1	0.000	
20	 C36	-52.092	-0.873	-26.356	C.2	1	RES1	0.000	
21	 C37	-52.048	0.455	-26.875	C.2	1	RES1	0.000	
22	 C38	-52.167	0.698	-28.238	C.2	1	RES1	0.000	
23	 C39	-52.343	-0.356	-29.135	C.2	1	RES1	0.000	
24	 C40	-52.409	-1.659	-28.657	C.2	1	RES1	0.000	
25	 C41	-52.283	-1.910	-27.299	C.2	1	RES1	0.000	
26	 C42	-51.216	-1.947	-22.165	C.3	1	RES1	0.000	
27	 C43	-50.126	-1.483	-21.201	C.3	1	RES1	0.000	
28	 C44	-49.018	-2.507	-21.414	C.3	1	RES1	0.000	
29	 C45	-49.034	-2.772	-22.900	C.3	1	RES1	0.000	
30	 C46	-50.486	-2.721	-23.289	C.3	1	RES1	0.000	
31	 C47	-52.754	0.006	-21.761	C.2	1	RES1	0.000	
32	 C48	-53.037	1.041	-16.080	C.2	1	RES1	0.000	
33	 C49	-52.330	0.574	-14.990	C.2	1	RES1	0.000	
34	 C50	-50.673	-0.091	-12.696	C.3	1	RES1	0.000	
35	 C51	-50.295	-0.968	-11.505	C.3	1	RES1	0.000	
@<TRIPOS>BOND
1 1 35 1
2 2 34 1
3 7 19 ar
4 7 26 1
5 7 31 ar
6 8 16 ar
7 8 31 ar
8 1 9 1
9 1 10 1
10 10 11 1
11 2 11 1
12 2 12 1
13 12 13 ar
14 12 33 ar
15 13 14 ar
16 14 15 ar
17 3 15 1
18 15 32 ar
19 3 16 1
20 4 16 ar
21 4 17 ar
22 17 18 ar
23 5 18 ar
24 18 31 ar
25 5 19 ar
26 6 19 1
27 6 20 1
28 20 21 ar
29 20 25 ar
30 21 22 ar
31 22 23 ar
32 23 24 ar
33 24 25 ar
34 26 27 1
35 26 30 1
36 27 28 1
37 28 29 1
38 29 30 1
39 32 33 ar
40 34 35 1
@<TRIPOS>SUBSTRUCTURE
1	RES1	1	GROUP	1 ****	RES
