# created with PyMOL 2.5.2
@<TRIPOS>MOLECULE
EGFR_5X27_TargetProtein
35 40 1                 
SMALL
USER_CHARGES
@<TRIPOS>ATOM
1	  N4	-49.124	-2.050	-11.877	N.3	1	RES1	0.000	
2	  N5	-50.489	-0.857	-14.148	N.pl3	1	RES1	0.000	
3	  N6	-53.512	1.091	-18.590	N.pl3	1	RES1	0.000	
4	  N7	-54.357	1.644	-20.653	N.2	1	RES1	0.000	
5	  N8	-53.348	0.411	-24.006	N.2	1	RES1	0.000	
6	  N9	-51.781	-1.066	-25.127	N.pl3	1	RES1	0.000	
7	 N10	-51.935	-0.800	-22.747	N.2	1	RES1	0.000	
8	 N11	-52.583	0.034	-20.561	N.2	1	RES1	0.000	
9	 C25	-48.059	-2.162	-10.874	C.3	1	RES1	0.000	
10	 C26	-49.863	-0.766	-11.729	C.3	1	RES1	0.000	
11	 C27	-50.960	-0.644	-12.779	C.3	1	RES1	0.000	
12	 C28	-51.231	-0.370	-15.284	C.2	1	RES1	0.000	
13	 C29	-50.902	-0.734	-16.584	C.2	1	RES1	0.000	
14	 C30	-51.643	-0.287	-17.695	C.2	1	RES1	0.000	
15	 C31	-52.704	0.597	-17.528	C.2	1	RES1	0.000	
16	 C32	-53.467	0.921	-19.961	C.2	1	RES1	0.000	
17	 C33	-54.425	1.551	-21.993	C.2	1	RES1	0.000	
18	 C34	-53.535	0.716	-22.679	C.2	1	RES1	0.000	
19	 C35	-52.373	-0.491	-24.033	C.2	1	RES1	0.000	
20	 C36	-51.955	-0.707	-26.509	C.2	1	RES1	0.000	
21	 C37	-52.067	0.610	-26.981	C.2	1	RES1	0.000	
22	 C38	-52.264	0.860	-28.320	C.2	1	RES1	0.000	
23	 C39	-52.365	-0.157	-29.241	C.2	1	RES1	0.000	
24	 C40	-52.257	-1.480	-28.787	C.2	1	RES1	0.000	
25	 C41	-52.078	-1.751	-27.454	C.2	1	RES1	0.000	
26	 C42	-50.918	-1.803	-22.340	C.3	1	RES1	0.000	
27	 C43	-51.433	-2.847	-21.348	C.3	1	RES1	0.000	
28	 C44	-50.429	-2.884	-20.210	C.3	1	RES1	0.000	
29	 C45	-49.165	-2.303	-20.806	C.3	1	RES1	0.000	
30	 C46	-49.687	-1.203	-21.716	C.3	1	RES1	0.000	
31	 C47	-52.682	-0.030	-21.893	C.2	1	RES1	0.000	
32	 C48	-53.033	0.983	-16.209	C.2	1	RES1	0.000	
33	 C49	-52.311	0.521	-15.113	C.2	1	RES1	0.000	
34	 C50	-49.611	-2.040	-14.323	C.3	1	RES1	0.000	
35	 C51	-48.521	-2.116	-13.266	C.3	1	RES1	0.000	
@<TRIPOS>BOND
1 1 35 1
2 2 34 1
3 7 19 ar
4 7 26 1
5 7 31 ar
6 8 16 ar
7 8 31 ar
8 1 9 1
9 1 10 1
10 10 11 1
11 2 11 1
12 2 12 1
13 12 13 ar
14 12 33 ar
15 13 14 ar
16 14 15 ar
17 3 15 1
18 15 32 ar
19 3 16 1
20 4 16 ar
21 4 17 ar
22 17 18 ar
23 5 18 ar
24 18 31 ar
25 5 19 ar
26 6 19 1
27 6 20 1
28 20 21 ar
29 20 25 ar
30 21 22 ar
31 22 23 ar
32 23 24 ar
33 24 25 ar
34 26 27 1
35 26 30 1
36 27 28 1
37 28 29 1
38 29 30 1
39 32 33 ar
40 34 35 1
@<TRIPOS>SUBSTRUCTURE
1	RES1	1	GROUP	1 ****	RES
