# created with PyMOL 2.5.2
@<TRIPOS>MOLECULE
EGFR_5X27_TargetProtein
35 40 1                 
SMALL
USER_CHARGES
@<TRIPOS>ATOM
1	  N4	-49.117	-2.064	-11.859	N.3	1	RES1	0.000	
2	  N5	-50.442	-0.859	-14.134	N.pl3	1	RES1	0.000	
3	  N6	-53.469	1.074	-18.575	N.pl3	1	RES1	0.000	
4	  N7	-54.339	1.649	-20.667	N.2	1	RES1	0.000	
5	  N8	-53.343	0.410	-24.002	N.2	1	RES1	0.000	
6	  N9	-51.808	-1.076	-25.136	N.pl3	1	RES1	0.000	
7	 N10	-51.954	-0.790	-22.775	N.2	1	RES1	0.000	
8	 N11	-52.566	0.047	-20.553	N.2	1	RES1	0.000	
9	 C25	-48.185	-2.092	-10.721	C.3	1	RES1	0.000	
10	 C26	-48.403	-1.813	-13.138	C.3	1	RES1	0.000	
11	 C27	-49.335	-1.794	-14.347	C.3	1	RES1	0.000	
12	 C28	-51.207	-0.376	-15.268	C.2	1	RES1	0.000	
13	 C29	-52.225	0.577	-15.149	C.2	1	RES1	0.000	
14	 C30	-52.948	1.036	-16.214	C.2	1	RES1	0.000	
15	 C31	-52.668	0.601	-17.501	C.2	1	RES1	0.000	
16	 C32	-53.443	0.909	-19.980	C.2	1	RES1	0.000	
17	 C33	-54.398	1.566	-22.001	C.2	1	RES1	0.000	
18	 C34	-53.514	0.700	-22.686	C.2	1	RES1	0.000	
19	 C35	-52.397	-0.483	-24.055	C.2	1	RES1	0.000	
20	 C36	-51.980	-0.708	-26.505	C.2	1	RES1	0.000	
21	 C37	-52.081	0.597	-26.978	C.2	1	RES1	0.000	
22	 C38	-52.255	0.869	-28.349	C.2	1	RES1	0.000	
23	 C39	-52.401	-0.154	-29.260	C.2	1	RES1	0.000	
24	 C40	-52.320	-1.458	-28.817	C.2	1	RES1	0.000	
25	 C41	-52.123	-1.745	-27.461	C.2	1	RES1	0.000	
26	 C42	-50.937	-1.803	-22.358	C.3	1	RES1	0.000	
27	 C43	-51.461	-2.847	-21.349	C.3	1	RES1	0.000	
28	 C44	-50.406	-2.901	-20.272	C.3	1	RES1	0.000	
29	 C45	-49.162	-2.324	-20.856	C.3	1	RES1	0.000	
30	 C46	-49.681	-1.245	-21.749	C.3	1	RES1	0.000	
31	 C47	-52.664	-0.011	-21.885	C.2	1	RES1	0.000	
32	 C48	-51.656	-0.337	-17.673	C.2	1	RES1	0.000	
33	 C49	-50.926	-0.795	-16.587	C.2	1	RES1	0.000	
34	 C50	-51.132	-0.958	-12.840	C.3	1	RES1	0.000	
35	 C51	-50.120	-1.012	-11.665	C.3	1	RES1	0.000	
@<TRIPOS>BOND
1 1 35 1
2 2 34 1
3 7 19 ar
4 7 26 1
5 7 31 ar
6 8 16 ar
7 8 31 ar
8 1 9 1
9 1 10 1
10 10 11 1
11 2 11 1
12 2 12 1
13 12 13 ar
14 12 33 ar
15 13 14 ar
16 14 15 ar
17 3 15 1
18 15 32 ar
19 3 16 1
20 4 16 ar
21 4 17 ar
22 17 18 ar
23 5 18 ar
24 18 31 ar
25 5 19 ar
26 6 19 1
27 6 20 1
28 20 21 ar
29 20 25 ar
30 21 22 ar
31 22 23 ar
32 23 24 ar
33 24 25 ar
34 26 27 1
35 26 30 1
36 27 28 1
37 28 29 1
38 29 30 1
39 32 33 ar
40 34 35 1
@<TRIPOS>SUBSTRUCTURE
1	RES1	1	GROUP	1 ****	RES
