# created with PyMOL 2.5.2
@<TRIPOS>MOLECULE
CDK6_2EUF_TargetProtein
33 37 1                 
SMALL
USER_CHARGES
@<TRIPOS>ATOM
1	  C1	34.440	27.587	59.354	C.3	1	RES1	0.000	
2	  N1	31.618	22.749	63.583	N.2	1	RES1	0.000	
3	  O1	32.514	28.672	60.222	O.2	1	RES1	0.000	
4	  C2	33.085	27.626	60.014	C.2	1	RES1	0.000	
5	  N2	30.329	20.881	62.867	N.pl3	1	RES1	0.000	
6	  C3	32.482	26.334	60.404	C.2	1	RES1	0.000	
7	  N3	27.730	16.801	59.943	N.pl3	1	RES1	0.000	
8	  C4	32.634	25.870	61.670	C.2	1	RES1	0.000	
9	  N4	26.639	14.745	58.180	N.3	1	RES1	0.000	
10	  C5	33.378	26.612	62.770	C.3	1	RES1	0.000	
11	  C6	32.057	24.560	62.012	C.2	1	RES1	0.000	
12	  O6	31.563	26.042	58.271	O.2	1	RES1	0.000	
13	  C7	32.148	23.952	63.267	C.2	1	RES1	0.000	
14	  C8	30.916	22.129	62.625	C.2	1	RES1	0.000	
15	  C9	29.698	19.912	62.072	C.2	1	RES1	0.000	
16	  N9	29.494	18.718	62.656	N.2	1	RES1	0.000	
17	 C10	29.228	20.149	60.803	C.2	1	RES1	0.000	
18	 N10	30.766	22.606	61.385	N.2	1	RES1	0.000	
19	 C11	28.596	19.124	60.084	C.2	1	RES1	0.000	
20	 N11	31.144	24.315	59.755	N.2	1	RES1	0.000	
21	 C12	28.357	17.880	60.662	C.2	1	RES1	0.000	
22	 C13	28.398	15.510	59.785	C.3	1	RES1	0.000	
23	 C14	27.459	14.396	59.343	C.3	1	RES1	0.000	
24	 C45	25.855	15.957	58.468	C.3	1	RES1	0.000	
25	 C46	26.748	17.169	58.845	C.3	1	RES1	0.000	
26	 C47	28.870	17.742	61.966	C.2	1	RES1	0.000	
27	 C48	31.289	23.793	61.088	C.2	1	RES1	0.000	
28	 C49	30.383	23.522	58.767	C.3	1	RES1	0.000	
29	 C50	31.196	22.830	57.712	C.3	1	RES1	0.000	
30	 C51	30.646	23.274	56.373	C.3	1	RES1	0.000	
31	 C52	29.235	23.674	56.681	C.3	1	RES1	0.000	
32	 C53	29.315	24.378	58.012	C.3	1	RES1	0.000	
33	 C54	31.691	25.553	59.390	C.2	1	RES1	0.000	
@<TRIPOS>BOND
1 1 4 1
2 2 13 ar
3 2 14 ar
4 3 4 2
5 4 6 1
6 5 14 1
7 5 15 1
8 6 8 ar
9 6 33 ar
10 7 25 1
11 8 10 1
12 8 11 ar
13 9 24 1
14 11 13 ar
15 15 16 ar
16 15 17 ar
17 17 19 ar
18 14 18 ar
19 18 27 ar
20 19 21 ar
21 20 27 ar
22 20 28 1
23 20 33 ar
24 7 21 1
25 21 26 ar
26 7 22 1
27 22 23 1
28 9 23 1
29 24 25 1
30 16 26 ar
31 11 27 ar
32 28 29 1
33 28 32 1
34 29 30 1
35 30 31 1
36 31 32 1
37 12 33 2
@<TRIPOS>SUBSTRUCTURE
1	RES1	1	GROUP	1 ****	RES
