# created with PyMOL 2.5.2
@<TRIPOS>MOLECULE
CDK6_2EUF_TargetProtein
33 37 1                 
SMALL
USER_CHARGES
@<TRIPOS>ATOM
1	  C1	34.707	27.514	59.415	C.3	1	RES1	0.000	
2	  N1	31.409	22.973	63.598	N.2	1	RES1	0.000	
3	  O1	32.706	28.683	59.992	O.2	1	RES1	0.000	
4	  C2	33.287	27.597	59.910	C.2	1	RES1	0.000	
5	  N2	30.252	21.013	62.852	N.pl3	1	RES1	0.000	
6	  C3	32.631	26.325	60.319	C.2	1	RES1	0.000	
7	  N3	27.881	16.948	59.692	N.pl3	1	RES1	0.000	
8	  C4	32.627	25.966	61.613	C.2	1	RES1	0.000	
9	  N4	26.890	14.912	57.887	N.3	1	RES1	0.000	
10	  C5	33.188	26.795	62.735	C.3	1	RES1	0.000	
11	  C6	32.004	24.642	61.986	C.2	1	RES1	0.000	
12	  C7	31.987	24.136	63.263	C.2	1	RES1	0.000	
13	  C8	30.862	22.248	62.628	C.2	1	RES1	0.000	
14	  O8	32.089	25.857	58.103	O.2	1	RES1	0.000	
15	  C9	29.649	20.072	61.995	C.2	1	RES1	0.000	
16	  N9	29.457	18.836	62.563	N.2	1	RES1	0.000	
17	 C10	29.285	20.311	60.682	C.2	1	RES1	0.000	
18	 N10	30.864	22.646	61.327	N.2	1	RES1	0.000	
19	 C11	28.681	19.299	59.926	C.2	1	RES1	0.000	
20	 N11	31.413	24.277	59.663	N.2	1	RES1	0.000	
21	 C12	28.461	18.013	60.456	C.2	1	RES1	0.000	
22	 C13	28.604	15.698	59.522	C.3	1	RES1	0.000	
23	 C14	27.692	14.542	59.058	C.3	1	RES1	0.000	
24	 C43	26.043	16.089	58.210	C.3	1	RES1	0.000	
25	 C44	26.913	17.290	58.612	C.3	1	RES1	0.000	
26	 C45	28.909	17.875	61.785	C.2	1	RES1	0.000	
27	 C46	31.401	23.844	61.021	C.2	1	RES1	0.000	
28	 C47	30.756	23.414	58.599	C.3	1	RES1	0.000	
29	 C48	29.875	24.150	57.600	C.3	1	RES1	0.000	
30	 C49	28.538	23.381	57.552	C.3	1	RES1	0.000	
31	 C50	28.899	21.994	58.057	C.3	1	RES1	0.000	
32	 C51	29.928	22.260	59.157	C.3	1	RES1	0.000	
33	 C52	32.013	25.466	59.248	C.2	1	RES1	0.000	
@<TRIPOS>BOND
1 1 4 1
2 2 12 ar
3 2 13 ar
4 3 4 2
5 4 6 1
6 5 13 1
7 5 15 1
8 6 8 ar
9 6 33 ar
10 7 25 1
11 8 10 1
12 8 11 ar
13 9 24 1
14 11 12 ar
15 15 16 ar
16 15 17 ar
17 17 19 ar
18 13 18 ar
19 18 27 ar
20 19 21 ar
21 20 27 ar
22 20 28 1
23 20 33 ar
24 7 21 1
25 21 26 ar
26 7 22 1
27 22 23 1
28 9 23 1
29 24 25 1
30 16 26 ar
31 11 27 ar
32 28 29 1
33 28 32 1
34 29 30 1
35 30 31 1
36 31 32 1
37 14 33 2
@<TRIPOS>SUBSTRUCTURE
1	RES1	1	GROUP	1 ****	RES
