# created with PyMOL 2.5.2
@<TRIPOS>MOLECULE
CDK6_2EUF_TargetProtein
33 37 1                 
SMALL
USER_CHARGES
@<TRIPOS>ATOM
1	  C1	34.606	27.919	59.691	C.3	1	RES1	0.000	
2	  N1	31.471	22.785	63.375	N.2	1	RES1	0.000	
3	  O1	32.585	28.859	60.502	O.2	1	RES1	0.000	
4	  C2	33.222	27.845	60.248	C.2	1	RES1	0.000	
5	  N2	30.320	20.924	62.607	N.pl3	1	RES1	0.000	
6	  C3	32.629	26.518	60.507	C.2	1	RES1	0.000	
7	  N3	27.712	16.707	59.866	N.pl3	1	RES1	0.000	
8	  C4	32.675	25.944	61.722	C.2	1	RES1	0.000	
9	  N4	26.621	14.471	58.380	N.3	1	RES1	0.000	
10	  C5	33.380	26.573	62.914	C.3	1	RES1	0.000	
11	  C6	32.079	24.644	61.926	C.2	1	RES1	0.000	
12	  C7	32.043	23.993	63.153	C.2	1	RES1	0.000	
13	  C8	30.897	22.172	62.300	C.2	1	RES1	0.000	
14	  C9	29.657	19.920	61.871	C.2	1	RES1	0.000	
15	  N9	29.606	18.711	62.420	N.2	1	RES1	0.000	
16	  O9	31.964	26.376	58.247	O.2	1	RES1	0.000	
17	 C10	29.089	20.147	60.614	C.2	1	RES1	0.000	
18	 N10	30.880	22.702	61.066	N.2	1	RES1	0.000	
19	 C11	28.431	19.102	59.968	C.2	1	RES1	0.000	
20	 N11	31.434	24.533	59.573	N.2	1	RES1	0.000	
21	 C12	28.365	17.809	60.511	C.2	1	RES1	0.000	
22	 C13	26.943	16.954	58.638	C.3	1	RES1	0.000	
23	 C14	25.978	15.803	58.351	C.3	1	RES1	0.000	
24	 C45	27.239	14.249	59.673	C.3	1	RES1	0.000	
25	 C46	28.258	15.348	60.034	C.3	1	RES1	0.000	
26	 C47	28.984	17.709	61.782	C.2	1	RES1	0.000	
27	 C48	31.462	23.914	60.894	C.2	1	RES1	0.000	
28	 C49	30.844	23.809	58.410	C.3	1	RES1	0.000	
29	 C50	29.808	24.625	57.607	C.3	1	RES1	0.000	
30	 C51	29.100	23.549	56.790	C.3	1	RES1	0.000	
31	 C52	29.434	22.187	57.393	C.3	1	RES1	0.000	
32	 C53	30.210	22.464	58.657	C.3	1	RES1	0.000	
33	 C54	31.978	25.801	59.336	C.2	1	RES1	0.000	
@<TRIPOS>BOND
1 1 4 1
2 2 12 ar
3 2 13 ar
4 3 4 2
5 4 6 1
6 5 13 1
7 5 14 1
8 6 8 ar
9 6 33 ar
10 7 25 1
11 8 10 1
12 8 11 ar
13 9 24 1
14 11 12 ar
15 14 15 ar
16 14 17 ar
17 17 19 ar
18 13 18 ar
19 18 27 ar
20 19 21 ar
21 20 27 ar
22 20 28 1
23 20 33 ar
24 7 21 1
25 21 26 ar
26 7 22 1
27 22 23 1
28 9 23 1
29 24 25 1
30 15 26 ar
31 11 27 ar
32 28 29 1
33 28 32 1
34 29 30 1
35 30 31 1
36 31 32 1
37 16 33 2
@<TRIPOS>SUBSTRUCTURE
1	RES1	1	GROUP	1 ****	RES
