# created with PyMOL 2.5.2
@<TRIPOS>MOLECULE
CDK6_2EUF_TargetProtein
33 37 1                 
SMALL
USER_CHARGES
@<TRIPOS>ATOM
1	  C1	34.598	27.916	59.676	C.3	1	RES1	0.000	
2	  N1	31.474	22.749	63.343	N.2	1	RES1	0.000	
3	  O1	32.599	28.872	60.553	O.2	1	RES1	0.000	
4	  C2	33.230	27.871	60.250	C.2	1	RES1	0.000	
5	  N2	30.340	20.903	62.570	N.pl3	1	RES1	0.000	
6	  C3	32.614	26.497	60.487	C.2	1	RES1	0.000	
7	  N3	27.813	16.666	59.815	N.pl3	1	RES1	0.000	
8	  C4	32.721	25.941	61.735	C.2	1	RES1	0.000	
9	  N4	26.285	14.518	58.638	N.3	1	RES1	0.000	
10	  C5	33.395	26.594	62.910	C.3	1	RES1	0.000	
11	  C6	32.087	24.632	61.907	C.2	1	RES1	0.000	
12	  C7	32.040	23.954	63.145	C.2	1	RES1	0.000	
13	  C8	30.891	22.159	62.297	C.2	1	RES1	0.000	
14	  O8	31.959	26.410	58.248	O.2	1	RES1	0.000	
15	  C9	29.713	19.906	61.822	C.2	1	RES1	0.000	
16	  N9	29.668	18.676	62.421	N.2	1	RES1	0.000	
17	 C10	29.137	20.115	60.597	C.2	1	RES1	0.000	
18	 N10	30.883	22.693	61.050	N.2	1	RES1	0.000	
19	 C11	28.520	19.058	59.914	C.2	1	RES1	0.000	
20	 N11	31.453	24.525	59.577	N.2	1	RES1	0.000	
21	 C12	28.449	17.779	60.472	C.2	1	RES1	0.000	
22	 C13	27.042	16.894	58.567	C.3	1	RES1	0.000	
23	 C14	26.805	15.606	57.790	C.3	1	RES1	0.000	
24	 C53	27.188	14.254	59.728	C.3	1	RES1	0.000	
25	 C54	27.435	15.477	60.611	C.3	1	RES1	0.000	
26	 C55	29.050	17.684	61.752	C.2	1	RES1	0.000	
27	 C56	31.463	23.933	60.863	C.2	1	RES1	0.000	
28	 C57	30.818	23.839	58.403	C.3	1	RES1	0.000	
29	 C58	29.831	24.663	57.593	C.3	1	RES1	0.000	
30	 C59	29.050	23.648	56.777	C.3	1	RES1	0.000	
31	 C60	29.294	22.273	57.433	C.3	1	RES1	0.000	
32	 C61	30.071	22.550	58.730	C.3	1	RES1	0.000	
33	 C62	31.983	25.808	59.351	C.2	1	RES1	0.000	
@<TRIPOS>BOND
1 1 4 1
2 2 12 ar
3 2 13 ar
4 3 4 2
5 4 6 1
6 5 13 1
7 5 15 1
8 6 8 ar
9 6 33 ar
10 7 25 1
11 8 10 1
12 8 11 ar
13 9 24 1
14 11 12 ar
15 15 16 ar
16 15 17 ar
17 17 19 ar
18 13 18 ar
19 18 27 ar
20 19 21 ar
21 20 27 ar
22 20 28 1
23 20 33 ar
24 7 21 1
25 21 26 ar
26 7 22 1
27 22 23 1
28 9 23 1
29 24 25 1
30 16 26 ar
31 11 27 ar
32 28 29 1
33 28 32 1
34 29 30 1
35 30 31 1
36 31 32 1
37 14 33 2
@<TRIPOS>SUBSTRUCTURE
1	RES1	1	GROUP	1 ****	RES
