# created with PyMOL 2.5.2
@<TRIPOS>MOLECULE
CDK6_2EUF_TargetProtein
33 37 1                 
SMALL
USER_CHARGES
@<TRIPOS>ATOM
1	  C1	34.732	27.584	59.499	C.3	1	RES1	0.000	
2	  N1	31.381	22.955	63.568	N.2	1	RES1	0.000	
3	  O1	32.681	28.712	60.052	O.2	1	RES1	0.000	
4	  C2	33.292	27.677	59.979	C.2	1	RES1	0.000	
5	  N2	30.245	20.996	62.768	N.pl3	1	RES1	0.000	
6	  C3	32.634	26.373	60.377	C.2	1	RES1	0.000	
7	  N3	27.887	16.938	59.612	N.pl3	1	RES1	0.000	
8	  C4	32.611	25.998	61.652	C.2	1	RES1	0.000	
9	  N4	26.576	14.650	58.394	N.3	1	RES1	0.000	
10	  C5	33.138	26.805	62.799	C.3	1	RES1	0.000	
11	  C6	31.999	24.681	61.994	C.2	1	RES1	0.000	
12	  C7	31.944	24.156	63.281	C.2	1	RES1	0.000	
13	  C8	30.864	22.252	62.558	C.2	1	RES1	0.000	
14	  C9	29.656	20.056	61.919	C.2	1	RES1	0.000	
15	  O9	32.118	25.922	58.112	O.2	1	RES1	0.000	
16	 C10	29.313	20.286	60.567	C.2	1	RES1	0.000	
17	 N10	29.420	18.850	62.468	N.2	1	RES1	0.000	
18	 C11	28.754	19.282	59.834	C.2	1	RES1	0.000	
19	 N11	30.854	22.687	61.290	N.2	1	RES1	0.000	
20	 C12	28.503	18.011	60.367	C.2	1	RES1	0.000	
21	 N12	31.434	24.343	59.652	N.2	1	RES1	0.000	
22	 C13	28.591	15.629	59.480	C.3	1	RES1	0.000	
23	 C14	28.026	14.777	58.369	C.3	1	RES1	0.000	
24	 C48	25.948	15.988	58.347	C.3	1	RES1	0.000	
25	 C49	26.426	16.894	59.488	C.3	1	RES1	0.000	
26	 C50	28.832	17.882	61.715	C.2	1	RES1	0.000	
27	 C51	31.392	23.888	60.975	C.2	1	RES1	0.000	
28	 C52	30.839	23.479	58.585	C.3	1	RES1	0.000	
29	 C53	29.949	24.203	57.566	C.3	1	RES1	0.000	
30	 C54	28.660	23.364	57.483	C.3	1	RES1	0.000	
31	 C55	29.073	21.991	57.936	C.3	1	RES1	0.000	
32	 C56	30.071	22.248	59.044	C.3	1	RES1	0.000	
33	 C57	32.058	25.508	59.296	C.2	1	RES1	0.000	
@<TRIPOS>BOND
1 1 4 1
2 2 12 ar
3 2 13 ar
4 3 4 2
5 4 6 1
6 5 13 1
7 5 14 1
8 6 8 ar
9 6 33 ar
10 7 25 1
11 8 10 1
12 8 11 ar
13 9 24 1
14 11 12 ar
15 14 16 ar
16 16 18 ar
17 14 17 ar
18 17 26 ar
19 18 20 ar
20 13 19 ar
21 19 27 ar
22 7 20 1
23 20 26 ar
24 21 27 ar
25 21 28 1
26 21 33 ar
27 7 22 1
28 22 23 1
29 9 23 1
30 24 25 1
31 11 27 ar
32 28 29 1
33 28 32 1
34 29 30 1
35 30 31 1
36 31 32 1
37 15 33 2
@<TRIPOS>SUBSTRUCTURE
1	RES1	1	GROUP	1 ****	RES
