# created with PyMOL 2.5.2
@<TRIPOS>MOLECULE
CDK6_2EUF_TargetProtein
33 37 1                 
SMALL
USER_CHARGES
@<TRIPOS>ATOM
1	  C1	34.642	27.677	59.455	C.3	1	RES1	0.000	
2	  N1	31.367	22.963	63.577	N.2	1	RES1	0.000	
3	  O1	32.580	28.710	60.074	O.2	1	RES1	0.000	
4	  C2	33.228	27.683	59.973	C.2	1	RES1	0.000	
5	  N2	30.214	21.001	62.798	N.pl3	1	RES1	0.000	
6	  C3	32.630	26.357	60.353	C.2	1	RES1	0.000	
7	  N3	27.896	16.952	59.620	N.pl3	1	RES1	0.000	
8	  C4	32.670	25.961	61.666	C.2	1	RES1	0.000	
9	  N4	26.588	14.661	58.375	N.3	1	RES1	0.000	
10	  C5	33.326	26.714	62.771	C.3	1	RES1	0.000	
11	  C6	32.059	24.654	61.984	C.2	1	RES1	0.000	
12	  C7	31.929	24.126	63.252	C.2	1	RES1	0.000	
13	  C8	30.857	22.253	62.585	C.2	1	RES1	0.000	
14	  C9	29.643	20.068	61.940	C.2	1	RES1	0.000	
15	  N9	29.358	18.859	62.527	N.2	1	RES1	0.000	
16	  O9	31.991	25.946	58.155	O.2	1	RES1	0.000	
17	 C10	29.352	20.300	60.592	C.2	1	RES1	0.000	
18	 N10	30.880	22.653	61.306	N.2	1	RES1	0.000	
19	 C11	28.784	19.261	59.816	C.2	1	RES1	0.000	
20	 N11	31.478	24.274	59.631	N.2	1	RES1	0.000	
21	 C12	28.493	18.003	60.361	C.2	1	RES1	0.000	
22	 C13	28.565	15.621	59.519	C.3	1	RES1	0.000	
23	 C14	28.036	14.799	58.366	C.3	1	RES1	0.000	
24	 C47	25.994	15.998	58.325	C.3	1	RES1	0.000	
25	 C48	26.400	16.916	59.489	C.3	1	RES1	0.000	
26	 C49	28.793	17.905	61.742	C.2	1	RES1	0.000	
27	 C50	31.429	23.841	61.008	C.2	1	RES1	0.000	
28	 C51	30.890	23.433	58.573	C.3	1	RES1	0.000	
29	 C52	30.008	24.213	57.545	C.3	1	RES1	0.000	
30	 C53	29.058	23.167	57.043	C.3	1	RES1	0.000	
31	 C54	28.748	22.329	58.272	C.3	1	RES1	0.000	
32	 C55	30.025	22.246	59.029	C.3	1	RES1	0.000	
33	 C56	31.992	25.520	59.304	C.2	1	RES1	0.000	
@<TRIPOS>BOND
1 1 4 1
2 2 12 ar
3 2 13 ar
4 3 4 2
5 4 6 1
6 5 13 1
7 5 14 1
8 6 8 ar
9 6 33 ar
10 7 25 1
11 8 10 1
12 8 11 ar
13 9 24 1
14 11 12 ar
15 14 15 ar
16 14 17 ar
17 17 19 ar
18 13 18 ar
19 18 27 ar
20 19 21 ar
21 20 27 ar
22 20 28 1
23 20 33 ar
24 7 21 1
25 21 26 ar
26 7 22 1
27 22 23 1
28 9 23 1
29 24 25 1
30 15 26 ar
31 11 27 ar
32 28 29 1
33 28 32 1
34 29 30 1
35 30 31 1
36 31 32 1
37 16 33 2
@<TRIPOS>SUBSTRUCTURE
1	RES1	1	GROUP	1 ****	RES
