# created with PyMOL 2.5.2
@<TRIPOS>MOLECULE
BRAF_4XV2_TargetProtein
35 38 1                 
SMALL
USER_CHARGES
@<TRIPOS>ATOM
1	  S1	-4.631	-4.088	-20.909	S.O2	1	RES1	0.000	
2	  S2	4.108	-3.528	-22.283	S.2	1	RES1	0.000	
3	  N5	5.979	-1.119	-18.428	N.pl3	1	RES1	0.000	
4	  N6	3.756	-1.106	-17.717	N.2	1	RES1	0.000	
5	  O6	-5.317	-5.303	-21.229	O.2	1	RES1	0.000	
6	  N7	-2.951	-4.427	-20.793	N.pl3	1	RES1	0.000	
7	  O7	-4.812	-2.871	-21.710	O.2	1	RES1	0.000	
8	  N8	1.732	-3.658	-23.307	N.2	1	RES1	0.000	
9	  N9	4.339	-1.995	-19.840	N.2	1	RES1	0.000	
10	 C26	4.666	-1.405	-18.674	C.2	1	RES1	0.000	
11	 C27	2.471	-1.449	-17.948	C.2	1	RES1	0.000	
12	 C28	2.032	-2.057	-19.128	C.2	1	RES1	0.000	
13	 C29	3.050	-2.322	-20.048	C.2	1	RES1	0.000	
14	 C30	2.789	-2.927	-21.344	C.2	1	RES1	0.000	
15	 C31	1.643	-3.124	-22.058	C.2	1	RES1	0.000	
16	 C32	0.314	-2.738	-21.549	C.2	1	RES1	0.000	
17	 C33	0.034	-1.391	-21.273	C.2	1	RES1	0.000	
18	 C34	-1.251	-1.044	-20.753	C.2	1	RES1	0.000	
19	 C35	-2.234	-2.021	-20.598	C.2	1	RES1	0.000	
20	 C36	-1.962	-3.386	-20.877	C.2	1	RES1	0.000	
21	 C37	-5.055	-3.690	-19.216	C.2	1	RES1	0.000	
22	 C38	-4.917	-4.676	-18.264	C.2	1	RES1	0.000	
23	 C39	-5.300	-4.443	-16.949	C.2	1	RES1	0.000	
24	 C40	-5.858	-3.194	-16.585	C.2	1	RES1	0.000	
25	 C41	-5.955	-2.207	-17.563	C.2	1	RES1	0.000	
26	 C42	-5.600	-2.457	-18.863	C.2	1	RES1	0.000	
27	 C43	-0.705	-3.710	-21.377	C.2	1	RES1	0.000	
28	 C44	2.986	-3.953	-23.573	C.2	1	RES1	0.000	
29	 C45	3.467	-4.575	-24.850	C.3	1	RES1	0.000	
30	 C46	4.902	-5.097	-24.703	C.3	1	RES1	0.000	
31	 C47	3.425	-3.599	-26.026	C.3	1	RES1	0.000	
32	 C48	2.586	-5.780	-25.220	C.3	1	RES1	0.000	
33	  F1	-4.385	-5.882	-18.588	 F	1	RES1	0.000	
34	  F2	-5.746	-1.470	-19.783	 F	1	RES1	0.000	
35	  F3	-0.439	-4.981	-21.673	 F	1	RES1	0.000	
@<TRIPOS>BOND
1 1 5 2
2 1 6 1
3 1 7 2
4 1 21 1
5 2 14 ar
6 2 28 ar
7 3 10 1
8 4 10 ar
9 9 10 ar
10 4 11 ar
11 11 12 ar
12 12 13 ar
13 9 13 ar
14 13 14 1
15 14 15 ar
16 8 15 ar
17 15 16 1
18 16 17 ar
19 16 27 ar
20 17 18 ar
21 18 19 ar
22 19 20 ar
23 6 20 1
24 20 27 ar
25 21 22 ar
26 21 26 ar
27 22 23 ar
28 23 24 ar
29 24 25 ar
30 25 26 ar
31 8 28 ar
32 28 29 1
33 29 30 1
34 29 31 1
35 29 32 1
36 22 33 1
37 26 34 1
38 27 35 1
@<TRIPOS>SUBSTRUCTURE
1	RES1	1	GROUP	1 ****	RES
