# created with PyMOL 2.5.2
@<TRIPOS>MOLECULE
BRD4_6YQN_TargetProtein
24 27 1                 
SMALL
USER_CHARGES
@<TRIPOS>ATOM
1	 CL1	25.752	17.907	-7.002	Cl	1	RES1	0.000	
2	  C1	26.017	15.094	1.273	C.3	1	RES1	0.000	
3	  N1	30.778	16.819	0.016	N.2	1	RES1	0.000	
4	  S1	28.501	16.303	1.344	S.2	1	RES1	0.000	
5	  C2	27.248	15.465	0.540	C.2	1	RES1	0.000	
6	  N2	32.679	17.778	0.538	N.2	1	RES1	0.000	
7	  C3	27.533	15.289	-0.807	C.2	1	RES1	0.000	
8	  N3	32.931	16.979	-0.528	N.2	1	RES1	0.000	
9	  C4	26.610	14.581	-1.729	C.3	1	RES1	0.000	
10	  C5	28.796	15.899	-1.192	C.2	1	RES1	0.000	
11	  C6	29.461	16.361	-0.064	C.2	1	RES1	0.000	
12	  C7	31.430	17.692	0.885	C.2	1	RES1	0.000	
13	  C8	30.816	18.508	1.950	C.3	1	RES1	0.000	
14	  N8	30.571	15.768	-2.868	N.2	1	RES1	0.000	
15	  C9	31.782	16.402	-0.844	C.2	1	RES1	0.000	
16	 C10	31.572	15.324	-1.878	C.3	1	RES1	0.000	
17	 C11	32.836	14.950	-2.607	C.3	1	RES1	0.000	
18	 C36	29.325	16.000	-2.549	C.2	1	RES1	0.000	
19	 C37	28.429	16.482	-3.646	C.2	1	RES1	0.000	
20	 C38	27.336	17.332	-3.364	C.2	1	RES1	0.000	
21	 C39	26.524	17.768	-4.401	C.2	1	RES1	0.000	
22	 C40	26.767	17.353	-5.702	C.2	1	RES1	0.000	
23	 C41	27.838	16.529	-6.001	C.2	1	RES1	0.000	
24	 C42	28.672	16.100	-4.973	C.2	1	RES1	0.000	
@<TRIPOS>BOND
1 1 22 1
2 2 5 1
3 3 11 1
4 3 12 ar
5 3 15 ar
6 4 5 ar
7 4 11 ar
8 5 7 ar
9 6 8 ar
10 6 12 ar
11 7 9 1
12 7 10 ar
13 8 15 ar
14 10 11 ar
15 12 13 1
16 14 16 1
17 15 16 1
18 16 17 1
19 10 18 1
20 14 18 2
21 18 19 1
22 19 20 ar
23 19 24 ar
24 20 21 ar
25 21 22 ar
26 22 23 ar
27 23 24 ar
@<TRIPOS>SUBSTRUCTURE
1	RES1	1	GROUP	1 ****	RES
