# created with PyMOL 2.5.2
@<TRIPOS>MOLECULE
WDR5_6DAK2_TargetProtein
27 30 1                 
SMALL
USER_CHARGES
@<TRIPOS>ATOM
1	 CL1	-14.009	29.898	6.070	Cl	1	RES1	0.000	
2	 CL2	-15.309	27.927	3.868	Cl	1	RES1	0.000	
3	  N4	-13.248	25.118	-2.921	N.2	1	RES1	0.000	
4	  N5	-12.197	23.792	-1.517	N.2	1	RES1	0.000	
5	  N6	-10.317	24.458	4.073	N.pl3	1	RES1	0.000	
6	  O7	-12.200	23.278	3.358	O.2	1	RES1	0.000	
7	 C21	-8.927	26.154	1.659	C.2	1	RES1	0.000	
8	 C22	-9.113	27.004	0.580	C.2	1	RES1	0.000	
9	 C23	-10.074	26.658	-0.404	C.2	1	RES1	0.000	
10	 C24	-10.829	25.495	-0.271	C.2	1	RES1	0.000	
11	 C25	-11.823	25.108	-1.274	C.2	1	RES1	0.000	
12	 C26	-12.478	25.970	-2.149	C.2	1	RES1	0.000	
13	 C27	-14.167	25.264	-4.003	C.2	1	RES1	0.000	
14	 C28	-14.824	23.874	-4.013	C.2	1	RES1	0.000	
15	 C29	-13.865	22.939	-3.283	C.2	1	RES1	0.000	
16	 C30	-13.069	23.853	-2.498	C.2	1	RES1	0.000	
17	 C31	-10.656	24.711	0.852	C.2	1	RES1	0.000	
18	 C32	-9.662	24.991	1.833	C.2	1	RES1	0.000	
19	 C33	-9.433	24.076	2.974	C.3	1	RES1	0.000	
20	 C34	-11.597	23.922	4.232	C.2	1	RES1	0.000	
21	 C35	-12.180	24.133	5.611	C.3	1	RES1	0.000	
22	 C36	-12.671	25.561	5.749	C.2	1	RES1	0.000	
23	 C37	-12.107	26.412	6.681	C.2	1	RES1	0.000	
24	 C38	-12.525	27.755	6.766	C.2	1	RES1	0.000	
25	 C39	-13.515	28.233	5.915	C.2	1	RES1	0.000	
26	 C40	-14.091	27.381	4.960	C.2	1	RES1	0.000	
27	 C41	-13.673	26.060	4.882	C.2	1	RES1	0.000	
@<TRIPOS>BOND
1 1 25 1
2 2 26 1
3 7 8 ar
4 7 18 ar
5 8 9 ar
6 9 10 ar
7 10 11 1
8 10 17 ar
9 4 11 ar
10 11 12 ar
11 3 12 ar
12 3 13 ar
13 13 14 ar
14 14 15 ar
15 15 16 ar
16 3 16 ar
17 4 16 ar
18 17 18 ar
19 18 19 1
20 5 19 1
21 5 20 1
22 6 20 2
23 20 21 1
24 21 22 1
25 22 23 ar
26 22 27 ar
27 23 24 ar
28 24 25 ar
29 25 26 ar
30 26 27 ar
@<TRIPOS>SUBSTRUCTURE
1	RES1	1	GROUP	1 ****	RES
