# created with PyMOL 2.5.2
@<TRIPOS>MOLECULE
WDR5_6DAK2_TargetProtein
27 30 1                 
SMALL
USER_CHARGES
@<TRIPOS>ATOM
1	 CL1	-13.794	29.775	4.501	Cl	1	RES1	0.000	
2	 CL2	-14.885	27.394	2.551	Cl	1	RES1	0.000	
3	  N4	-13.571	25.458	-2.219	N.2	1	RES1	0.000	
4	  N5	-12.218	24.019	-1.251	N.2	1	RES1	0.000	
5	  N6	-10.062	24.037	4.349	N.pl3	1	RES1	0.000	
6	  O8	-11.725	22.660	3.527	O.2	1	RES1	0.000	
7	 C23	-9.089	26.298	2.226	C.2	1	RES1	0.000	
8	 C24	-9.517	27.252	1.325	C.2	1	RES1	0.000	
9	 C25	-10.475	26.909	0.365	C.2	1	RES1	0.000	
10	 C26	-10.964	25.625	0.239	C.2	1	RES1	0.000	
11	 C27	-11.984	25.308	-0.763	C.2	1	RES1	0.000	
12	 C28	-12.862	26.230	-1.345	C.2	1	RES1	0.000	
13	 C29	-14.650	25.662	-3.170	C.2	1	RES1	0.000	
14	 C30	-15.092	24.200	-3.439	C.2	1	RES1	0.000	
15	 C31	-13.902	23.325	-3.036	C.2	1	RES1	0.000	
16	 C32	-13.147	24.172	-2.129	C.2	1	RES1	0.000	
17	 C33	-10.495	24.663	1.135	C.2	1	RES1	0.000	
18	 C34	-9.599	24.969	2.175	C.2	1	RES1	0.000	
19	 C35	-9.182	23.938	3.182	C.3	1	RES1	0.000	
20	 C36	-11.312	23.461	4.351	C.2	1	RES1	0.000	
21	 C37	-12.219	24.007	5.469	C.3	1	RES1	0.000	
22	 C38	-12.579	25.454	5.180	C.2	1	RES1	0.000	
23	 C39	-12.143	26.476	6.020	C.2	1	RES1	0.000	
24	 C40	-12.510	27.792	5.789	C.2	1	RES1	0.000	
25	 C41	-13.355	28.092	4.714	C.2	1	RES1	0.000	
26	 C42	-13.815	27.078	3.874	C.2	1	RES1	0.000	
27	 C43	-13.414	25.768	4.110	C.2	1	RES1	0.000	
@<TRIPOS>BOND
1 1 25 1
2 2 26 1
3 7 8 ar
4 7 18 ar
5 8 9 ar
6 9 10 ar
7 10 11 1
8 10 17 ar
9 4 11 ar
10 11 12 ar
11 3 12 ar
12 3 13 ar
13 13 14 ar
14 14 15 ar
15 15 16 ar
16 3 16 ar
17 4 16 ar
18 17 18 ar
19 18 19 1
20 5 19 1
21 5 20 1
22 6 20 2
23 20 21 1
24 21 22 1
25 22 23 ar
26 22 27 ar
27 23 24 ar
28 24 25 ar
29 25 26 ar
30 26 27 ar
@<TRIPOS>SUBSTRUCTURE
1	RES1	1	GROUP	1 ****	RES
