# created with PyMOL 2.5.2
@<TRIPOS>MOLECULE
WDR5_6DAK2_TargetProtein
27 30 1                 
SMALL
USER_CHARGES
@<TRIPOS>ATOM
1	 CL1	-14.039	29.877	6.182	Cl	1	RES1	0.000	
2	 CL2	-15.344	27.919	3.933	Cl	1	RES1	0.000	
3	  N4	-13.284	25.138	-2.906	N.2	1	RES1	0.000	
4	  N5	-12.260	23.826	-1.465	N.2	1	RES1	0.000	
5	  N6	-10.343	24.475	4.050	N.pl3	1	RES1	0.000	
6	  O9	-12.170	23.216	3.404	O.2	1	RES1	0.000	
7	 C25	-8.846	26.115	1.582	C.2	1	RES1	0.000	
8	 C26	-9.038	26.942	0.473	C.2	1	RES1	0.000	
9	 C27	-9.988	26.628	-0.481	C.2	1	RES1	0.000	
10	 C28	-10.829	25.498	-0.299	C.2	1	RES1	0.000	
11	 C29	-11.823	25.117	-1.291	C.2	1	RES1	0.000	
12	 C30	-12.475	25.962	-2.211	C.2	1	RES1	0.000	
13	 C31	-14.233	25.260	-3.975	C.2	1	RES1	0.000	
14	 C32	-14.469	23.763	-4.378	C.2	1	RES1	0.000	
15	 C33	-14.020	22.949	-3.176	C.2	1	RES1	0.000	
16	 C34	-13.157	23.872	-2.432	C.2	1	RES1	0.000	
17	 C35	-10.666	24.719	0.848	C.2	1	RES1	0.000	
18	 C36	-9.668	25.010	1.806	C.2	1	RES1	0.000	
19	 C37	-9.464	24.112	2.978	C.3	1	RES1	0.000	
20	 C38	-11.608	23.933	4.210	C.2	1	RES1	0.000	
21	 C39	-12.175	24.176	5.596	C.3	1	RES1	0.000	
22	 C40	-12.684	25.574	5.768	C.2	1	RES1	0.000	
23	 C41	-12.098	26.443	6.727	C.2	1	RES1	0.000	
24	 C42	-12.547	27.766	6.844	C.2	1	RES1	0.000	
25	 C43	-13.546	28.249	5.992	C.2	1	RES1	0.000	
26	 C44	-14.120	27.399	5.027	C.2	1	RES1	0.000	
27	 C45	-13.661	26.089	4.926	C.2	1	RES1	0.000	
@<TRIPOS>BOND
1 1 25 1
2 2 26 1
3 7 8 ar
4 7 18 ar
5 8 9 ar
6 9 10 ar
7 10 11 1
8 10 17 ar
9 4 11 ar
10 11 12 ar
11 3 12 ar
12 3 13 ar
13 13 14 ar
14 14 15 ar
15 15 16 ar
16 3 16 ar
17 4 16 ar
18 17 18 ar
19 18 19 1
20 5 19 1
21 5 20 1
22 6 20 2
23 20 21 1
24 21 22 1
25 22 23 ar
26 22 27 ar
27 23 24 ar
28 24 25 ar
29 25 26 ar
30 26 27 ar
@<TRIPOS>SUBSTRUCTURE
1	RES1	1	GROUP	1 ****	RES
