# created with PyMOL 2.5.2
@<TRIPOS>MOLECULE
WDR5_6DAK2_TargetProtein
27 30 1                 
SMALL
USER_CHARGES
@<TRIPOS>ATOM
1	 CL1	-14.000	29.906	6.098	Cl	1	RES1	0.000	
2	 CL2	-15.359	27.927	3.865	Cl	1	RES1	0.000	
3	  N4	-13.245	25.143	-2.865	N.2	1	RES1	0.000	
4	  N5	-12.141	23.771	-1.537	N.2	1	RES1	0.000	
5	  N6	-10.338	24.460	4.066	N.pl3	1	RES1	0.000	
6	 O10	-12.168	23.274	3.322	O.2	1	RES1	0.000	
7	 C27	-8.918	26.169	1.690	C.2	1	RES1	0.000	
8	 C28	-9.120	27.004	0.583	C.2	1	RES1	0.000	
9	 C29	-10.024	26.685	-0.389	C.2	1	RES1	0.000	
10	 C30	-10.755	25.467	-0.310	C.2	1	RES1	0.000	
11	 C31	-11.741	25.101	-1.303	C.2	1	RES1	0.000	
12	 C32	-12.437	25.955	-2.132	C.2	1	RES1	0.000	
13	 C33	-14.268	25.291	-3.885	C.2	1	RES1	0.000	
14	 C34	-14.915	23.911	-3.872	C.2	1	RES1	0.000	
15	 C35	-13.902	22.924	-3.228	C.2	1	RES1	0.000	
16	 C36	-13.046	23.858	-2.478	C.2	1	RES1	0.000	
17	 C37	-10.524	24.656	0.789	C.2	1	RES1	0.000	
18	 C38	-9.609	24.961	1.796	C.2	1	RES1	0.000	
19	 C39	-9.441	24.078	2.998	C.3	1	RES1	0.000	
20	 C40	-11.612	23.903	4.176	C.2	1	RES1	0.000	
21	 C41	-12.212	24.148	5.557	C.3	1	RES1	0.000	
22	 C42	-12.708	25.570	5.694	C.2	1	RES1	0.000	
23	 C43	-12.136	26.421	6.647	C.2	1	RES1	0.000	
24	 C44	-12.549	27.741	6.738	C.2	1	RES1	0.000	
25	 C45	-13.545	28.229	5.897	C.2	1	RES1	0.000	
26	 C46	-14.124	27.400	4.943	C.2	1	RES1	0.000	
27	 C47	-13.721	26.076	4.871	C.2	1	RES1	0.000	
@<TRIPOS>BOND
1 1 25 1
2 2 26 1
3 6 20 2
4 7 8 ar
5 7 18 ar
6 8 9 ar
7 9 10 ar
8 10 11 1
9 10 17 ar
10 4 11 ar
11 11 12 ar
12 3 12 ar
13 3 13 ar
14 13 14 ar
15 14 15 ar
16 15 16 ar
17 3 16 ar
18 4 16 ar
19 17 18 ar
20 18 19 1
21 5 19 1
22 5 20 1
23 20 21 1
24 21 22 1
25 22 23 ar
26 22 27 ar
27 23 24 ar
28 24 25 ar
29 25 26 ar
30 26 27 ar
@<TRIPOS>SUBSTRUCTURE
1	RES1	1	GROUP	1 ****	RES
