# created with PyMOL 2.5.2
@<TRIPOS>MOLECULE
WDR5_6DAK2_TargetProtein
27 30 1                 
SMALL
USER_CHARGES
@<TRIPOS>ATOM
1	 CL1	-13.725	29.814	4.587	Cl	1	RES1	0.000	
2	 CL2	-14.956	27.449	2.709	Cl	1	RES1	0.000	
3	  N4	-13.636	25.403	-2.208	N.2	1	RES1	0.000	
4	  N5	-12.177	24.027	-1.281	N.2	1	RES1	0.000	
5	  N6	-10.089	24.004	4.306	N.pl3	1	RES1	0.000	
6	 O11	-11.792	22.681	3.529	O.2	1	RES1	0.000	
7	 C29	-9.134	26.275	2.208	C.2	1	RES1	0.000	
8	 C30	-9.548	27.247	1.334	C.2	1	RES1	0.000	
9	 C31	-10.482	26.958	0.338	C.2	1	RES1	0.000	
10	 C32	-10.980	25.668	0.196	C.2	1	RES1	0.000	
11	 C33	-12.003	25.313	-0.773	C.2	1	RES1	0.000	
12	 C34	-12.909	26.169	-1.363	C.2	1	RES1	0.000	
13	 C35	-14.736	25.544	-3.114	C.3	1	RES1	0.000	
14	 C36	-14.678	24.233	-3.906	C.3	1	RES1	0.000	
15	 C37	-13.914	23.243	-3.001	C.3	1	RES1	0.000	
16	 C38	-13.165	24.115	-2.123	C.2	1	RES1	0.000	
17	 C39	-10.532	24.694	1.116	C.2	1	RES1	0.000	
18	 C40	-9.616	24.978	2.142	C.2	1	RES1	0.000	
19	 C41	-9.239	23.927	3.122	C.3	1	RES1	0.000	
20	 C42	-11.369	23.453	4.349	C.2	1	RES1	0.000	
21	 C43	-12.206	24.025	5.478	C.3	1	RES1	0.000	
22	 C44	-12.560	25.466	5.211	C.2	1	RES1	0.000	
23	 C45	-12.074	26.488	6.042	C.2	1	RES1	0.000	
24	 C46	-12.425	27.801	5.829	C.2	1	RES1	0.000	
25	 C47	-13.335	28.149	4.819	C.2	1	RES1	0.000	
26	 C48	-13.827	27.111	3.997	C.2	1	RES1	0.000	
27	 C49	-13.450	25.791	4.190	C.2	1	RES1	0.000	
@<TRIPOS>BOND
1 1 25 1
2 2 26 1
3 6 20 2
4 7 8 ar
5 7 18 ar
6 8 9 ar
7 9 10 ar
8 10 11 1
9 10 17 ar
10 4 11 ar
11 11 12 ar
12 3 12 ar
13 3 13 1
14 13 14 1
15 14 15 1
16 15 16 1
17 3 16 ar
18 4 16 ar
19 17 18 ar
20 18 19 1
21 5 19 1
22 5 20 1
23 20 21 1
24 21 22 1
25 22 23 ar
26 22 27 ar
27 23 24 ar
28 24 25 ar
29 25 26 ar
30 26 27 ar
@<TRIPOS>SUBSTRUCTURE
1	RES1	1	GROUP	1 ****	RES
