# created with PyMOL 2.5.2
@<TRIPOS>MOLECULE
WDR5_6DAK2_TargetProtein
27 30 1                 
SMALL
USER_CHARGES
@<TRIPOS>ATOM
1	 CL1	-14.136	29.871	6.263	Cl	1	RES1	0.000	
2	 CL2	-15.438	27.921	4.019	Cl	1	RES1	0.000	
3	  N4	-13.294	25.133	-2.896	N.2	1	RES1	0.000	
4	  N5	-12.277	23.790	-1.497	N.2	1	RES1	0.000	
5	  N6	-10.280	24.466	4.069	N.pl3	1	RES1	0.000	
6	 O12	-12.164	23.268	3.370	O.2	1	RES1	0.000	
7	 C31	-8.826	26.101	1.575	C.2	1	RES1	0.000	
8	 C32	-9.036	26.873	0.454	C.2	1	RES1	0.000	
9	 C33	-9.991	26.544	-0.482	C.2	1	RES1	0.000	
10	 C34	-10.832	25.461	-0.287	C.2	1	RES1	0.000	
11	 C35	-11.843	25.099	-1.293	C.2	1	RES1	0.000	
12	 C36	-12.461	25.943	-2.208	C.2	1	RES1	0.000	
13	 C37	-14.232	25.297	-3.981	C.3	1	RES1	0.000	
14	 C38	-14.423	23.832	-4.407	C.3	1	RES1	0.000	
15	 C39	-14.038	22.970	-3.195	C.3	1	RES1	0.000	
16	 C40	-13.171	23.891	-2.467	C.2	1	RES1	0.000	
17	 C41	-10.662	24.671	0.884	C.2	1	RES1	0.000	
18	 C42	-9.653	24.995	1.784	C.2	1	RES1	0.000	
19	 C43	-9.442	24.077	2.988	C.3	1	RES1	0.000	
20	 C44	-11.558	23.944	4.236	C.2	1	RES1	0.000	
21	 C45	-12.145	24.185	5.611	C.3	1	RES1	0.000	
22	 C46	-12.612	25.625	5.721	C.2	1	RES1	0.000	
23	 C47	-12.085	26.493	6.695	C.2	1	RES1	0.000	
24	 C48	-12.585	27.793	6.823	C.2	1	RES1	0.000	
25	 C49	-13.607	28.269	6.018	C.2	1	RES1	0.000	
26	 C50	-14.122	27.400	5.040	C.2	1	RES1	0.000	
27	 C51	-13.646	26.111	4.894	C.2	1	RES1	0.000	
@<TRIPOS>BOND
1 1 25 1
2 2 26 1
3 3 16 ar
4 6 20 2
5 7 8 ar
6 7 18 ar
7 8 9 ar
8 9 10 ar
9 10 11 1
10 10 17 ar
11 4 11 ar
12 11 12 ar
13 3 12 ar
14 3 13 1
15 13 14 1
16 14 15 1
17 15 16 1
18 4 16 ar
19 17 18 ar
20 18 19 1
21 5 19 1
22 5 20 1
23 20 21 1
24 21 22 1
25 22 23 ar
26 22 27 ar
27 23 24 ar
28 24 25 ar
29 25 26 ar
30 26 27 ar
@<TRIPOS>SUBSTRUCTURE
1	RES1	1	GROUP	1 ****	RES
