# created with PyMOL 2.5.2
@<TRIPOS>MOLECULE
WDR5_6DAK2_TargetProtein
27 30 1                 
SMALL
USER_CHARGES
@<TRIPOS>ATOM
1	 CL1	-13.999	29.902	5.999	Cl	1	RES1	0.000	
2	 CL2	-15.324	27.876	3.777	Cl	1	RES1	0.000	
3	  N4	-13.356	25.163	-2.782	N.2	1	RES1	0.000	
4	  N5	-12.234	23.802	-1.472	N.2	1	RES1	0.000	
5	  N6	-10.309	24.432	4.096	N.pl3	1	RES1	0.000	
6	 O13	-12.125	23.253	3.360	O.2	1	RES1	0.000	
7	 C33	-8.879	26.135	1.676	C.2	1	RES1	0.000	
8	 C34	-9.112	27.004	0.591	C.2	1	RES1	0.000	
9	 C35	-10.075	26.668	-0.374	C.2	1	RES1	0.000	
10	 C36	-10.808	25.466	-0.282	C.2	1	RES1	0.000	
11	 C37	-11.816	25.122	-1.264	C.2	1	RES1	0.000	
12	 C38	-12.531	25.995	-2.087	C.2	1	RES1	0.000	
13	 C39	-14.332	25.319	-3.801	C.2	1	RES1	0.000	
14	 C40	-14.507	23.879	-4.306	C.2	1	RES1	0.000	
15	 C41	-14.010	22.984	-3.157	C.2	1	RES1	0.000	
16	 C42	-13.151	23.885	-2.405	C.2	1	RES1	0.000	
17	 C43	-10.551	24.634	0.818	C.2	1	RES1	0.000	
18	 C44	-9.625	24.967	1.804	C.2	1	RES1	0.000	
19	 C45	-9.420	24.074	3.007	C.3	1	RES1	0.000	
20	 C46	-11.553	23.896	4.240	C.2	1	RES1	0.000	
21	 C47	-12.174	24.135	5.603	C.3	1	RES1	0.000	
22	 C48	-12.665	25.564	5.723	C.2	1	RES1	0.000	
23	 C49	-12.135	26.444	6.658	C.2	1	RES1	0.000	
24	 C50	-12.559	27.758	6.725	C.2	1	RES1	0.000	
25	 C51	-13.543	28.234	5.848	C.2	1	RES1	0.000	
26	 C52	-14.101	27.379	4.892	C.2	1	RES1	0.000	
27	 C53	-13.662	26.055	4.844	C.2	1	RES1	0.000	
@<TRIPOS>BOND
1 1 25 1
2 2 26 1
3 3 16 ar
4 6 20 2
5 7 8 ar
6 7 18 ar
7 8 9 ar
8 9 10 ar
9 10 11 1
10 10 17 ar
11 4 11 ar
12 11 12 ar
13 3 12 ar
14 3 13 ar
15 13 14 ar
16 14 15 ar
17 15 16 ar
18 4 16 ar
19 17 18 ar
20 18 19 1
21 5 19 1
22 5 20 1
23 20 21 1
24 21 22 1
25 22 23 ar
26 22 27 ar
27 23 24 ar
28 24 25 ar
29 25 26 ar
30 26 27 ar
@<TRIPOS>SUBSTRUCTURE
1	RES1	1	GROUP	1 ****	RES
