# created with PyMOL 2.5.2
@<TRIPOS>MOLECULE
BRD4_6YQN_TargetProtein
24 27 1                 
SMALL
USER_CHARGES
@<TRIPOS>ATOM
1	 CL1	25.751	17.888	-6.984	Cl	1	RES1	0.000	
2	  S1	28.508	16.319	1.376	S.2	1	RES1	0.000	
3	  N5	30.576	15.778	-2.854	N.2	1	RES1	0.000	
4	  N6	30.806	16.826	0.016	N.2	1	RES1	0.000	
5	  N7	32.716	17.786	0.539	N.2	1	RES1	0.000	
6	  N8	32.914	16.969	-0.538	N.2	1	RES1	0.000	
7	 C26	32.842	14.945	-2.583	C.3	1	RES1	0.000	
8	 C27	31.541	15.322	-1.874	C.3	1	RES1	0.000	
9	 C28	29.325	16.043	-2.548	C.2	1	RES1	0.000	
10	 C29	28.432	16.495	-3.675	C.2	1	RES1	0.000	
11	 C30	28.690	16.102	-4.962	C.2	1	RES1	0.000	
12	 C31	27.849	16.549	-6.007	C.2	1	RES1	0.000	
13	 C32	26.761	17.353	-5.723	C.2	1	RES1	0.000	
14	 C33	26.501	17.754	-4.414	C.2	1	RES1	0.000	
15	 C34	27.326	17.317	-3.367	C.2	1	RES1	0.000	
16	 C35	28.791	15.895	-1.204	C.2	1	RES1	0.000	
17	 C36	29.471	16.366	-0.074	C.2	1	RES1	0.000	
18	 C37	27.247	15.480	0.534	C.2	1	RES1	0.000	
19	 C38	26.031	15.095	1.299	C.3	1	RES1	0.000	
20	 C39	27.533	15.307	-0.812	C.2	1	RES1	0.000	
21	 C40	26.594	14.559	-1.745	C.3	1	RES1	0.000	
22	 C41	31.435	17.683	0.875	C.2	1	RES1	0.000	
23	 C42	30.777	18.463	1.969	C.3	1	RES1	0.000	
24	 C43	31.790	16.391	-0.854	C.2	1	RES1	0.000	
@<TRIPOS>BOND
1 1 13 1
2 2 17 ar
3 2 18 ar
4 5 6 ar
5 7 8 1
6 3 8 1
7 8 24 1
8 3 9 2
9 9 10 1
10 9 16 1
11 10 11 ar
12 10 15 ar
13 11 12 ar
14 12 13 ar
15 13 14 ar
16 14 15 ar
17 16 17 ar
18 16 20 ar
19 4 17 1
20 18 19 1
21 18 20 ar
22 20 21 1
23 4 22 ar
24 5 22 ar
25 22 23 1
26 4 24 ar
27 6 24 ar
@<TRIPOS>SUBSTRUCTURE
1	RES1	1	GROUP	1 ****	RES
