# created with PyMOL 2.5.2
@<TRIPOS>MOLECULE
BRD4_6YQN_TargetProtein
24 27 1                 
SMALL
USER_CHARGES
@<TRIPOS>ATOM
1	 CL1	25.723	17.903	-6.986	Cl	1	RES1	0.000	
2	  S1	28.516	16.314	1.374	S.2	1	RES1	0.000	
3	  N5	30.596	15.767	-2.878	N.2	1	RES1	0.000	
4	  N6	30.780	16.842	0.003	N.2	1	RES1	0.000	
5	  N7	32.694	17.762	0.560	N.2	1	RES1	0.000	
6	  N8	32.937	16.951	-0.523	N.2	1	RES1	0.000	
7	 C24	32.826	14.946	-2.606	C.3	1	RES1	0.000	
8	 C25	31.567	15.340	-1.855	C.3	1	RES1	0.000	
9	 C26	29.320	16.017	-2.564	C.2	1	RES1	0.000	
10	 C27	28.411	16.475	-3.651	C.2	1	RES1	0.000	
11	 C28	28.686	16.097	-4.967	C.2	1	RES1	0.000	
12	 C29	27.877	16.559	-6.000	C.2	1	RES1	0.000	
13	 C30	26.771	17.369	-5.724	C.2	1	RES1	0.000	
14	 C31	26.494	17.740	-4.414	C.2	1	RES1	0.000	
15	 C32	27.321	17.309	-3.364	C.2	1	RES1	0.000	
16	 C33	28.793	15.886	-1.198	C.2	1	RES1	0.000	
17	 C34	29.464	16.342	-0.051	C.2	1	RES1	0.000	
18	 C35	27.241	15.500	0.526	C.2	1	RES1	0.000	
19	 C36	26.021	15.089	1.288	C.3	1	RES1	0.000	
20	 C37	27.526	15.320	-0.798	C.2	1	RES1	0.000	
21	 C38	26.621	14.561	-1.748	C.3	1	RES1	0.000	
22	 C39	31.435	17.694	0.871	C.2	1	RES1	0.000	
23	 C40	30.801	18.492	1.944	C.3	1	RES1	0.000	
24	 C41	31.782	16.406	-0.849	C.2	1	RES1	0.000	
@<TRIPOS>BOND
1 1 13 1
2 2 17 ar
3 2 18 ar
4 5 6 ar
5 7 8 1
6 3 8 1
7 8 24 1
8 3 9 2
9 9 10 1
10 9 16 1
11 10 11 ar
12 10 15 ar
13 11 12 ar
14 12 13 ar
15 13 14 ar
16 14 15 ar
17 16 17 ar
18 16 20 ar
19 4 17 1
20 18 19 1
21 18 20 ar
22 20 21 1
23 4 22 ar
24 5 22 ar
25 22 23 1
26 4 24 ar
27 6 24 ar
@<TRIPOS>SUBSTRUCTURE
1	RES1	1	GROUP	1 ****	RES
