# created with PyMOL 2.5.2
@<TRIPOS>MOLECULE
BRD4_4F3I_TargetProtein
28 31 1                 
SMALL
USER_CHARGES
@<TRIPOS>ATOM
1	 CL1	30.181	48.909	-7.029	Cl	1	RES1	0.000	
2	  S1	27.409	50.562	1.324	S.2	1	RES1	0.000	
3	  N4	25.354	51.076	-2.925	N.2	1	RES1	0.000	
4	  N5	25.125	50.067	-0.023	N.2	1	RES1	0.000	
5	  N6	23.212	49.130	0.530	N.2	1	RES1	0.000	
6	  N7	22.991	49.927	-0.577	N.2	1	RES1	0.000	
7	  O8	22.185	53.333	-4.292	O.3	1	RES1	0.000	
8	  O9	24.234	53.921	-3.418	O.co2	1	RES1	0.000	
9	 C23	22.233	54.523	-5.108	C.3	1	RES1	0.000	
10	 C24	23.280	53.158	-3.486	C.2	1	RES1	0.000	
11	 C25	23.092	51.926	-2.651	C.3	1	RES1	0.000	
12	 C26	24.368	51.547	-1.898	C.3	1	RES1	0.000	
13	 C27	26.594	50.824	-2.608	C.2	1	RES1	0.000	
14	 C28	27.507	50.363	-3.691	C.2	1	RES1	0.000	
15	 C29	27.357	50.896	-4.990	C.2	1	RES1	0.000	
16	 C30	28.183	50.409	-6.016	C.2	1	RES1	0.000	
17	 C31	29.142	49.467	-5.745	C.2	1	RES1	0.000	
18	 C32	29.280	48.928	-4.479	C.2	1	RES1	0.000	
19	 C33	28.455	49.370	-3.435	C.2	1	RES1	0.000	
20	 C34	27.140	50.964	-1.247	C.2	1	RES1	0.000	
21	 C35	26.450	50.505	-0.122	C.2	1	RES1	0.000	
22	 C36	28.708	51.382	0.481	C.2	1	RES1	0.000	
23	 C37	29.906	51.797	1.238	C.3	1	RES1	0.000	
24	 C38	28.408	51.573	-0.877	C.2	1	RES1	0.000	
25	 C39	29.314	52.270	-1.811	C.3	1	RES1	0.000	
26	 C40	24.488	49.217	0.846	C.2	1	RES1	0.000	
27	 C41	25.094	48.435	1.942	C.3	1	RES1	0.000	
28	 C42	24.124	50.496	-0.863	C.2	1	RES1	0.000	
@<TRIPOS>BOND
1 1 17 1
2 2 21 ar
3 2 22 ar
4 5 6 ar
5 7 9 1
6 7 10 1
7 8 10 2
8 10 11 1
9 11 12 1
10 3 12 1
11 12 28 1
12 3 13 2
13 13 14 1
14 13 20 1
15 14 15 ar
16 14 19 ar
17 15 16 ar
18 16 17 ar
19 17 18 ar
20 18 19 ar
21 20 21 ar
22 20 24 ar
23 4 21 1
24 22 23 1
25 22 24 ar
26 24 25 1
27 4 26 ar
28 5 26 ar
29 26 27 1
30 4 28 ar
31 6 28 ar
@<TRIPOS>SUBSTRUCTURE
1	RES1	1	GROUP	1 ****	RES
