# created with PyMOL 2.5.2
@<TRIPOS>MOLECULE
BRD4_4F3I_TargetProtein
29 32 1                 
SMALL
USER_CHARGES
@<TRIPOS>ATOM
1	 CL1	30.147	48.912	-7.024	Cl	1	RES1	0.000	
2	  C1	22.204	54.511	-5.132	C.3	1	RES1	0.000	
3	  N1	25.346	51.083	-2.907	N.2	1	RES1	0.000	
4	  O1	22.182	53.332	-4.306	O.3	1	RES1	0.000	
5	  S1	27.416	50.580	1.316	S.2	1	RES1	0.000	
6	  C2	23.283	53.165	-3.498	C.2	1	RES1	0.000	
7	  O2	24.250	53.900	-3.464	O.co2	1	RES1	0.000	
8	  C3	23.099	51.939	-2.651	C.3	1	RES1	0.000	
9	  O3	30.089	51.576	2.419	O.2	1	RES1	0.000	
10	  C4	24.374	51.565	-1.897	C.3	1	RES1	0.000	
11	  C5	26.591	50.830	-2.570	C.2	1	RES1	0.000	
12	  C6	27.503	50.368	-3.675	C.2	1	RES1	0.000	
13	  N6	25.143	50.068	-0.020	N.2	1	RES1	0.000	
14	  C7	27.365	50.891	-4.974	C.2	1	RES1	0.000	
15	  N7	23.234	49.127	0.532	N.2	1	RES1	0.000	
16	  C8	28.192	50.459	-5.995	C.2	1	RES1	0.000	
17	  N8	23.001	49.936	-0.559	N.2	1	RES1	0.000	
18	  C9	29.134	49.459	-5.753	C.2	1	RES1	0.000	
19	 C10	29.276	48.889	-4.470	C.2	1	RES1	0.000	
20	 C11	28.449	49.361	-3.448	C.2	1	RES1	0.000	
21	 C12	27.126	50.981	-1.238	C.2	1	RES1	0.000	
22	 C13	26.481	50.499	-0.117	C.2	1	RES1	0.000	
23	 C14	28.690	51.376	0.483	C.2	1	RES1	0.000	
24	 C15	29.862	51.741	1.209	C.2	1	RES1	0.000	
25	 C39	28.409	51.571	-0.869	C.2	1	RES1	0.000	
26	 C40	29.318	52.311	-1.793	C.3	1	RES1	0.000	
27	 C41	24.475	49.208	0.844	C.2	1	RES1	0.000	
28	 C42	25.117	48.404	1.930	C.3	1	RES1	0.000	
29	 C43	24.148	50.505	-0.884	C.2	1	RES1	0.000	
@<TRIPOS>BOND
1 1 18 1
2 2 4 1
3 3 10 1
4 3 11 2
5 4 6 1
6 5 22 ar
7 5 23 ar
8 6 8 1
9 6 7 2
10 8 10 1
11 10 29 1
12 11 12 1
13 12 14 ar
14 14 16 ar
15 15 17 ar
16 16 18 ar
17 18 19 ar
18 19 20 ar
19 12 20 ar
20 11 21 1
21 21 22 ar
22 21 25 ar
23 13 22 1
24 23 24 1
25 23 25 ar
26 9 24 2
27 25 26 1
28 13 27 ar
29 15 27 ar
30 27 28 1
31 13 29 ar
32 17 29 ar
@<TRIPOS>SUBSTRUCTURE
1	RES1	1	GROUP	1 ****	RES
