# created with PyMOL 2.5.2
@<TRIPOS>MOLECULE
BRD4_4F3I_TargetProtein
28 31 1                 
SMALL
USER_CHARGES
@<TRIPOS>ATOM
1	 CL1	30.162	48.932	-7.047	Cl	1	RES1	0.000	
2	  S1	27.417	50.562	1.332	S.2	1	RES1	0.000	
3	  N4	25.335	51.081	-2.916	N.2	1	RES1	0.000	
4	  N5	25.127	50.080	-0.029	N.2	1	RES1	0.000	
5	  N6	23.222	49.142	0.511	N.2	1	RES1	0.000	
6	  N7	22.991	49.948	-0.555	N.2	1	RES1	0.000	
7	  O7	22.172	53.340	-4.294	O.3	1	RES1	0.000	
8	  O8	24.262	53.864	-3.485	O.co2	1	RES1	0.000	
9	 C23	22.222	54.511	-5.119	C.3	1	RES1	0.000	
10	 C24	23.272	53.158	-3.510	C.2	1	RES1	0.000	
11	 C25	23.095	51.937	-2.645	C.3	1	RES1	0.000	
12	 C26	24.398	51.569	-1.925	C.3	1	RES1	0.000	
13	 C27	26.592	50.838	-2.587	C.2	1	RES1	0.000	
14	 C28	27.489	50.361	-3.688	C.2	1	RES1	0.000	
15	 C29	27.326	50.874	-4.990	C.2	1	RES1	0.000	
16	 C30	28.142	50.412	-6.005	C.2	1	RES1	0.000	
17	 C31	29.142	49.478	-5.748	C.2	1	RES1	0.000	
18	 C32	29.326	48.955	-4.465	C.2	1	RES1	0.000	
19	 C33	28.479	49.397	-3.423	C.2	1	RES1	0.000	
20	 C34	27.141	50.956	-1.243	C.2	1	RES1	0.000	
21	 C35	26.464	50.512	-0.104	C.2	1	RES1	0.000	
22	 C36	28.689	51.346	0.480	C.2	1	RES1	0.000	
23	 C37	29.905	51.743	1.240	C.3	1	RES1	0.000	
24	 C38	28.397	51.552	-0.861	C.2	1	RES1	0.000	
25	 C39	29.326	52.284	-1.791	C.3	1	RES1	0.000	
26	 C40	24.491	49.226	0.858	C.2	1	RES1	0.000	
27	 C41	25.098	48.432	1.931	C.3	1	RES1	0.000	
28	 C42	24.142	50.501	-0.853	C.2	1	RES1	0.000	
@<TRIPOS>BOND
1 1 17 1
2 2 21 ar
3 2 22 ar
4 5 6 ar
5 7 9 1
6 7 10 1
7 8 10 2
8 10 11 1
9 11 12 1
10 3 12 1
11 12 28 1
12 3 13 2
13 13 14 1
14 13 20 1
15 14 15 ar
16 14 19 ar
17 15 16 ar
18 16 17 ar
19 17 18 ar
20 18 19 ar
21 20 21 ar
22 20 24 ar
23 4 21 1
24 22 23 1
25 22 24 ar
26 24 25 1
27 4 26 ar
28 5 26 ar
29 26 27 1
30 4 28 ar
31 6 28 ar
@<TRIPOS>SUBSTRUCTURE
1	RES1	1	GROUP	1 ****	RES
