# created with PyMOL 2.5.2
@<TRIPOS>MOLECULE
BRD4_4F3I_TargetProtein
28 31 1                 
SMALL
USER_CHARGES
@<TRIPOS>ATOM
1	 CL1	30.154	48.938	-7.032	Cl	1	RES1	0.000	
2	  S1	27.404	50.587	1.317	S.2	1	RES1	0.000	
3	  N4	25.331	51.080	-2.935	N.2	1	RES1	0.000	
4	  N5	25.131	50.055	-0.027	N.2	1	RES1	0.000	
5	  N6	23.210	49.134	0.537	N.2	1	RES1	0.000	
6	  N7	22.995	49.914	-0.551	N.2	1	RES1	0.000	
7	  O7	22.215	53.328	-4.316	O.3	1	RES1	0.000	
8	  O8	24.289	53.827	-3.451	O.co2	1	RES1	0.000	
9	 C24	22.310	54.519	-5.104	C.3	1	RES1	0.000	
10	 C25	23.276	53.145	-3.500	C.2	1	RES1	0.000	
11	 C26	23.084	51.913	-2.648	C.3	1	RES1	0.000	
12	 C27	24.375	51.557	-1.881	C.3	1	RES1	0.000	
13	 C28	26.574	50.841	-2.599	C.2	1	RES1	0.000	
14	 C29	27.510	50.389	-3.671	C.2	1	RES1	0.000	
15	 C30	27.370	50.914	-4.976	C.2	1	RES1	0.000	
16	 C31	28.197	50.483	-6.006	C.2	1	RES1	0.000	
17	 C32	29.124	49.466	-5.751	C.2	1	RES1	0.000	
18	 C33	29.241	48.877	-4.510	C.2	1	RES1	0.000	
19	 C34	28.408	49.329	-3.447	C.2	1	RES1	0.000	
20	 C35	27.126	50.980	-1.232	C.2	1	RES1	0.000	
21	 C36	26.468	50.495	-0.121	C.2	1	RES1	0.000	
22	 C37	28.692	51.386	0.485	C.2	1	RES1	0.000	
23	 C38	29.901	51.817	1.221	C.3	1	RES1	0.000	
24	 C39	28.394	51.580	-0.863	C.2	1	RES1	0.000	
25	 C40	29.302	52.295	-1.808	C.3	1	RES1	0.000	
26	 C41	24.495	49.218	0.852	C.2	1	RES1	0.000	
27	 C42	25.111	48.408	1.950	C.3	1	RES1	0.000	
28	 C43	24.130	50.498	-0.861	C.2	1	RES1	0.000	
@<TRIPOS>BOND
1 1 17 1
2 2 21 ar
3 2 22 ar
4 5 6 ar
5 7 9 1
6 7 10 1
7 8 10 2
8 10 11 1
9 11 12 1
10 3 12 1
11 12 28 1
12 3 13 2
13 13 14 1
14 13 20 1
15 14 15 ar
16 14 19 ar
17 15 16 ar
18 16 17 ar
19 17 18 ar
20 18 19 ar
21 20 21 ar
22 20 24 ar
23 4 21 1
24 22 23 1
25 22 24 ar
26 24 25 1
27 4 26 ar
28 5 26 ar
29 26 27 1
30 4 28 ar
31 6 28 ar
@<TRIPOS>SUBSTRUCTURE
1	RES1	1	GROUP	1 ****	RES
