# created with PyMOL 2.5.2
@<TRIPOS>MOLECULE
BRD4_4F3I_TargetProtein
28 31 1                 
SMALL
USER_CHARGES
@<TRIPOS>ATOM
1	 CL1	30.198	48.912	-7.009	Cl	1	RES1	0.000	
2	  S1	27.424	50.560	1.313	S.2	1	RES1	0.000	
3	  N4	25.389	51.115	-2.931	N.2	1	RES1	0.000	
4	  N5	25.154	50.088	-0.030	N.2	1	RES1	0.000	
5	  N6	23.184	49.174	0.539	N.2	1	RES1	0.000	
6	  N7	22.985	50.002	-0.524	N.2	1	RES1	0.000	
7	  O7	22.101	53.307	-4.275	O.3	1	RES1	0.000	
8	  O8	24.132	54.016	-3.479	O.co2	1	RES1	0.000	
9	 C22	22.066	54.486	-5.116	C.3	1	RES1	0.000	
10	 C23	23.221	53.199	-3.518	C.2	1	RES1	0.000	
11	 C24	23.111	51.955	-2.687	C.3	1	RES1	0.000	
12	 C25	24.403	51.552	-1.930	C.3	1	RES1	0.000	
13	 C26	26.609	50.853	-2.609	C.2	1	RES1	0.000	
14	 C27	27.534	50.348	-3.680	C.2	1	RES1	0.000	
15	 C28	27.378	50.875	-4.994	C.2	1	RES1	0.000	
16	 C29	28.226	50.419	-6.017	C.2	1	RES1	0.000	
17	 C30	29.174	49.447	-5.753	C.2	1	RES1	0.000	
18	 C31	29.300	48.931	-4.447	C.2	1	RES1	0.000	
19	 C32	28.475	49.354	-3.427	C.2	1	RES1	0.000	
20	 C33	27.139	50.973	-1.213	C.2	1	RES1	0.000	
21	 C34	26.474	50.503	-0.115	C.2	1	RES1	0.000	
22	 C35	28.708	51.320	0.504	C.2	1	RES1	0.000	
23	 C36	29.916	51.705	1.231	C.3	1	RES1	0.000	
24	 C37	28.416	51.535	-0.864	C.2	1	RES1	0.000	
25	 C38	29.352	52.226	-1.785	C.3	1	RES1	0.000	
26	 C39	24.478	49.214	0.828	C.2	1	RES1	0.000	
27	 C40	25.105	48.395	1.932	C.3	1	RES1	0.000	
28	 C41	24.166	50.512	-0.873	C.2	1	RES1	0.000	
@<TRIPOS>BOND
1 1 17 1
2 2 21 ar
3 2 22 ar
4 5 6 ar
5 7 9 1
6 7 10 1
7 8 10 2
8 10 11 1
9 11 12 1
10 3 12 1
11 12 28 1
12 3 13 2
13 13 14 1
14 13 20 1
15 14 15 ar
16 14 19 ar
17 15 16 ar
18 16 17 ar
19 17 18 ar
20 18 19 ar
21 20 21 ar
22 20 24 ar
23 4 21 1
24 22 23 1
25 22 24 ar
26 24 25 1
27 4 26 ar
28 5 26 ar
29 26 27 1
30 4 28 ar
31 6 28 ar
@<TRIPOS>SUBSTRUCTURE
1	RES1	1	GROUP	1 ****	RES
