# created with PyMOL 2.5.2
@<TRIPOS>MOLECULE
EGFR_4I24_TargetProtein
33 36 1                 
SMALL
USER_CHARGES
@<TRIPOS>ATOM
1	 CL1	-10.342	46.734	0.276	Cl	1	RES1	0.000	
2	  N5	-12.089	44.003	-6.046	N.2	1	RES1	0.000	
3	  O5	-15.503	40.618	-6.719	O.3	1	RES1	0.000	
4	  N6	-10.708	43.980	-4.052	N.2	1	RES1	0.000	
5	  O6	-13.238	37.943	-3.896	O.2	1	RES1	0.000	
6	  N7	-11.065	42.370	-2.312	N.pl3	1	RES1	0.000	
7	  N8	-14.943	39.464	-4.377	N.pl3	1	RES1	0.000	
8	  N9	-15.696	33.749	-2.209	N.3	1	RES1	0.000	
9	 C23	-15.845	41.292	-7.965	C.3	1	RES1	0.000	
10	 C24	-14.447	41.225	-6.001	C.2	1	RES1	0.000	
11	 C25	-13.744	42.362	-6.374	C.2	1	RES1	0.000	
12	 C26	-12.741	42.909	-5.600	C.2	1	RES1	0.000	
13	 C27	-11.099	44.463	-5.261	C.2	1	RES1	0.000	
14	 C28	-11.411	42.911	-3.586	C.2	1	RES1	0.000	
15	 C29	-10.432	43.000	-1.203	C.2	1	RES1	0.000	
16	 C30	-9.673	42.314	-0.246	C.2	1	RES1	0.000	
17	 C31	-9.097	42.983	0.838	C.2	1	RES1	0.000	
18	 C32	-9.324	44.345	0.991	C.2	1	RES1	0.000	
19	 C33	-10.107	45.036	0.067	C.2	1	RES1	0.000	
20	 C34	-10.663	44.350	-0.983	C.2	1	RES1	0.000	
21	 C35	-12.425	42.325	-4.351	C.2	1	RES1	0.000	
22	 C36	-13.169	41.177	-3.931	C.2	1	RES1	0.000	
23	 C37	-14.188	40.646	-4.737	C.2	1	RES1	0.000	
24	 C38	-14.429	38.255	-4.005	C.2	1	RES1	0.000	
25	 C39	-15.493	37.265	-3.693	C.3	1	RES1	0.000	
26	 C40	-15.214	36.004	-3.304	C.3	1	RES1	0.000	
27	 C41	-16.216	34.925	-2.939	C.3	1	RES1	0.000	
28	 C42	-16.600	32.607	-2.355	C.3	1	RES1	0.000	
29	 C43	-16.048	31.362	-1.659	C.3	1	RES1	0.000	
30	 C44	-15.731	31.630	-0.187	C.3	1	RES1	0.000	
31	 C45	-14.826	32.872	-0.059	C.3	1	RES1	0.000	
32	 C46	-15.446	34.066	-0.797	C.3	1	RES1	0.000	
33	  F1	-8.733	44.960	2.049	 F	1	RES1	0.000	
@<TRIPOS>BOND
1 1 19 1
2 3 9 1
3 3 10 1
4 10 11 ar
5 10 23 ar
6 11 12 ar
7 2 12 ar
8 12 21 ar
9 2 13 ar
10 4 13 ar
11 4 14 ar
12 6 14 1
13 14 21 ar
14 6 15 1
15 15 16 ar
16 15 20 ar
17 16 17 ar
18 17 18 ar
19 18 19 ar
20 19 20 ar
21 21 22 ar
22 22 23 ar
23 7 23 1
24 5 24 2
25 7 24 1
26 24 25 1
27 25 26 1
28 26 27 1
29 8 27 1
30 8 28 1
31 28 29 1
32 29 30 1
33 30 31 1
34 31 32 1
35 8 32 1
36 18 33 1
@<TRIPOS>SUBSTRUCTURE
1	RES1	1	GROUP	1 ****	RES
