# created with PyMOL 2.5.2
@<TRIPOS>MOLECULE
EGFR_4I24_TargetProtein
33 36 1                 
SMALL
USER_CHARGES
@<TRIPOS>ATOM
1	 CL1	-10.259	46.839	0.272	Cl	1	RES1	0.000	
2	  N5	-12.086	43.972	-6.012	N.2	1	RES1	0.000	
3	  O5	-15.538	40.633	-6.673	O.3	1	RES1	0.000	
4	  N6	-10.710	43.893	-4.056	N.2	1	RES1	0.000	
5	  O6	-13.262	37.885	-3.813	O.2	1	RES1	0.000	
6	  N7	-11.038	42.473	-2.252	N.pl3	1	RES1	0.000	
7	  N8	-14.930	39.408	-4.391	N.pl3	1	RES1	0.000	
8	  N9	-15.785	33.749	-2.368	N.3	1	RES1	0.000	
9	 C26	-15.860	41.254	-7.966	C.3	1	RES1	0.000	
10	 C27	-14.518	41.223	-5.936	C.2	1	RES1	0.000	
11	 C28	-13.778	42.363	-6.343	C.2	1	RES1	0.000	
12	 C29	-12.761	42.878	-5.534	C.2	1	RES1	0.000	
13	 C30	-11.083	44.416	-5.258	C.2	1	RES1	0.000	
14	 C31	-11.414	42.879	-3.566	C.2	1	RES1	0.000	
15	 C32	-10.446	43.113	-1.175	C.2	1	RES1	0.000	
16	 C33	-9.680	42.379	-0.234	C.2	1	RES1	0.000	
17	 C34	-9.101	43.048	0.878	C.2	1	RES1	0.000	
18	 C35	-9.254	44.431	0.993	C.2	1	RES1	0.000	
19	 C36	-10.002	45.135	0.081	C.2	1	RES1	0.000	
20	 C37	-10.599	44.470	-0.983	C.2	1	RES1	0.000	
21	 C38	-12.460	42.265	-4.313	C.2	1	RES1	0.000	
22	 C39	-13.135	41.096	-3.952	C.2	1	RES1	0.000	
23	 C40	-14.160	40.578	-4.734	C.2	1	RES1	0.000	
24	 C41	-14.400	38.188	-4.015	C.2	1	RES1	0.000	
25	 C42	-15.522	37.185	-3.768	C.3	1	RES1	0.000	
26	 C43	-15.263	35.939	-3.379	C.3	1	RES1	0.000	
27	 C44	-16.303	34.875	-3.130	C.3	1	RES1	0.000	
28	 C45	-14.835	32.944	-3.162	C.3	1	RES1	0.000	
29	 C46	-14.269	31.747	-2.355	C.3	1	RES1	0.000	
30	 C47	-15.362	30.888	-1.780	C.3	1	RES1	0.000	
31	 C48	-16.427	31.741	-1.026	C.3	1	RES1	0.000	
32	 C49	-16.890	32.899	-1.893	C.3	1	RES1	0.000	
33	  F1	-8.684	45.040	2.060	 F	1	RES1	0.000	
@<TRIPOS>BOND
1 1 19 1
2 3 9 1
3 3 10 1
4 10 11 ar
5 10 23 ar
6 11 12 ar
7 2 12 ar
8 12 21 ar
9 2 13 ar
10 4 13 ar
11 4 14 ar
12 6 14 1
13 14 21 ar
14 6 15 1
15 15 16 ar
16 15 20 ar
17 16 17 ar
18 17 18 ar
19 18 19 ar
20 19 20 ar
21 21 22 ar
22 22 23 ar
23 7 23 1
24 5 24 2
25 7 24 1
26 24 25 1
27 25 26 1
28 26 27 1
29 8 27 1
30 8 28 1
31 28 29 1
32 29 30 1
33 30 31 1
34 31 32 1
35 8 32 1
36 18 33 1
@<TRIPOS>SUBSTRUCTURE
1	RES1	1	GROUP	1 ****	RES
