# created with PyMOL 2.5.2
@<TRIPOS>MOLECULE
EGFR_4I24_TargetProtein
33 36 1                 
SMALL
USER_CHARGES
@<TRIPOS>ATOM
1	 CL1	-10.286	46.745	0.301	Cl	1	RES1	0.000	
2	  N5	-12.125	44.038	-6.045	N.2	1	RES1	0.000	
3	  O5	-15.478	40.599	-6.756	O.3	1	RES1	0.000	
4	  N6	-10.785	44.010	-4.036	N.2	1	RES1	0.000	
5	  O6	-13.219	37.866	-3.914	O.2	1	RES1	0.000	
6	  N7	-11.081	42.407	-2.318	N.pl3	1	RES1	0.000	
7	  N8	-14.897	39.443	-4.386	N.pl3	1	RES1	0.000	
8	  N9	-15.726	33.817	-2.205	N.3	1	RES1	0.000	
9	 C27	-15.795	41.214	-7.991	C.3	1	RES1	0.000	
10	 C28	-14.461	41.230	-5.987	C.2	1	RES1	0.000	
11	 C29	-13.767	42.357	-6.380	C.2	1	RES1	0.000	
12	 C30	-12.755	42.922	-5.585	C.2	1	RES1	0.000	
13	 C31	-11.184	44.512	-5.249	C.2	1	RES1	0.000	
14	 C32	-11.443	42.926	-3.592	C.2	1	RES1	0.000	
15	 C33	-10.470	43.022	-1.209	C.2	1	RES1	0.000	
16	 C34	-9.682	42.318	-0.243	C.2	1	RES1	0.000	
17	 C35	-9.115	42.945	0.849	C.2	1	RES1	0.000	
18	 C36	-9.267	44.308	1.000	C.2	1	RES1	0.000	
19	 C37	-10.055	45.034	0.084	C.2	1	RES1	0.000	
20	 C38	-10.624	44.405	-1.004	C.2	1	RES1	0.000	
21	 C39	-12.454	42.328	-4.348	C.2	1	RES1	0.000	
22	 C40	-13.147	41.164	-3.969	C.2	1	RES1	0.000	
23	 C41	-14.163	40.619	-4.773	C.2	1	RES1	0.000	
24	 C42	-14.360	38.229	-3.991	C.2	1	RES1	0.000	
25	 C43	-15.488	37.264	-3.674	C.3	1	RES1	0.000	
26	 C44	-15.220	36.006	-3.272	C.3	1	RES1	0.000	
27	 C45	-16.267	34.992	-2.956	C.3	1	RES1	0.000	
28	 C46	-14.910	32.976	-3.086	C.3	1	RES1	0.000	
29	 C47	-14.322	31.789	-2.310	C.3	1	RES1	0.000	
30	 C48	-15.443	30.955	-1.637	C.3	1	RES1	0.000	
31	 C49	-16.338	31.846	-0.820	C.3	1	RES1	0.000	
32	 C50	-16.870	33.053	-1.609	C.3	1	RES1	0.000	
33	  F1	-8.732	44.918	2.073	 F	1	RES1	0.000	
@<TRIPOS>BOND
1 1 19 1
2 3 9 1
3 3 10 1
4 10 11 ar
5 10 23 ar
6 11 12 ar
7 2 12 ar
8 12 21 ar
9 2 13 ar
10 4 13 ar
11 4 14 ar
12 6 14 1
13 14 21 ar
14 6 15 1
15 15 16 ar
16 15 20 ar
17 16 17 ar
18 17 18 ar
19 18 19 ar
20 19 20 ar
21 21 22 ar
22 22 23 ar
23 7 23 1
24 5 24 2
25 7 24 1
26 24 25 1
27 25 26 1
28 26 27 1
29 8 27 1
30 8 28 1
31 28 29 1
32 29 30 1
33 30 31 1
34 31 32 1
35 8 32 1
36 18 33 1
@<TRIPOS>SUBSTRUCTURE
1	RES1	1	GROUP	1 ****	RES
