# created with PyMOL 2.5.2
@<TRIPOS>MOLECULE
EGFR_4I24_TargetProtein
33 36 1                 
SMALL
USER_CHARGES
@<TRIPOS>ATOM
1	 CL1	-10.216	46.778	0.434	Cl	1	RES1	0.000	
2	  N5	-12.096	43.984	-6.087	N.2	1	RES1	0.000	
3	  O5	-15.493	40.587	-6.754	O.3	1	RES1	0.000	
4	  N6	-10.781	44.037	-4.099	N.2	1	RES1	0.000	
5	  O6	-13.252	37.886	-3.919	O.2	1	RES1	0.000	
6	  N7	-11.078	42.470	-2.343	N.pl3	1	RES1	0.000	
7	  N8	-14.903	39.453	-4.382	N.pl3	1	RES1	0.000	
8	  N9	-15.752	33.797	-2.206	N.3	1	RES1	0.000	
9	 C28	-15.838	41.206	-7.974	C.3	1	RES1	0.000	
10	 C29	-14.455	41.189	-5.997	C.2	1	RES1	0.000	
11	 C30	-13.749	42.337	-6.416	C.2	1	RES1	0.000	
12	 C31	-12.753	42.896	-5.635	C.2	1	RES1	0.000	
13	 C32	-11.142	44.513	-5.298	C.2	1	RES1	0.000	
14	 C33	-11.432	42.962	-3.611	C.2	1	RES1	0.000	
15	 C34	-10.481	43.097	-1.227	C.2	1	RES1	0.000	
16	 C35	-9.728	42.346	-0.311	C.2	1	RES1	0.000	
17	 C36	-9.134	42.950	0.791	C.2	1	RES1	0.000	
18	 C37	-9.280	44.280	1.037	C.2	1	RES1	0.000	
19	 C38	-10.040	45.060	0.148	C.2	1	RES1	0.000	
20	 C39	-10.652	44.504	-0.958	C.2	1	RES1	0.000	
21	 C40	-12.448	42.329	-4.372	C.2	1	RES1	0.000	
22	 C41	-13.148	41.187	-3.952	C.2	1	RES1	0.000	
23	 C42	-14.139	40.614	-4.748	C.2	1	RES1	0.000	
24	 C43	-14.408	38.233	-3.972	C.2	1	RES1	0.000	
25	 C44	-15.461	37.234	-3.659	C.3	1	RES1	0.000	
26	 C45	-15.190	35.958	-3.241	C.3	1	RES1	0.000	
27	 C46	-16.274	34.935	-2.959	C.3	1	RES1	0.000	
28	 C47	-16.726	32.677	-2.253	C.3	1	RES1	0.000	
29	 C48	-16.181	31.454	-1.501	C.3	1	RES1	0.000	
30	 C49	-15.845	31.774	-0.087	C.3	1	RES1	0.000	
31	 C50	-14.871	32.974	-0.038	C.3	1	RES1	0.000	
32	 C51	-15.441	34.159	-0.804	C.3	1	RES1	0.000	
33	  F1	-8.718	44.808	2.136	 F	1	RES1	0.000	
@<TRIPOS>BOND
1 1 19 1
2 3 9 1
3 3 10 1
4 10 11 ar
5 10 23 ar
6 11 12 ar
7 2 12 ar
8 12 21 ar
9 2 13 ar
10 4 13 ar
11 4 14 ar
12 6 14 1
13 14 21 ar
14 6 15 1
15 15 16 ar
16 15 20 ar
17 16 17 ar
18 17 18 ar
19 18 19 ar
20 19 20 ar
21 21 22 ar
22 22 23 ar
23 7 23 1
24 5 24 2
25 7 24 1
26 24 25 1
27 25 26 1
28 26 27 1
29 8 27 1
30 8 28 1
31 28 29 1
32 29 30 1
33 30 31 1
34 31 32 1
35 8 32 1
36 18 33 1
@<TRIPOS>SUBSTRUCTURE
1	RES1	1	GROUP	1 ****	RES
