# created with PyMOL 2.5.2
@<TRIPOS>MOLECULE
EGFR_4I24_TargetProtein
33 36 1                 
SMALL
USER_CHARGES
@<TRIPOS>ATOM
1	 CL1	-10.229	46.768	0.422	Cl	1	RES1	0.000	
2	  N5	-12.109	44.000	-6.080	N.2	1	RES1	0.000	
3	  O5	-15.468	40.573	-6.736	O.3	1	RES1	0.000	
4	  N6	-10.787	44.017	-4.102	N.2	1	RES1	0.000	
5	  O6	-13.200	37.913	-3.853	O.2	1	RES1	0.000	
6	  N7	-11.085	42.448	-2.345	N.pl3	1	RES1	0.000	
7	  N8	-14.890	39.444	-4.367	N.pl3	1	RES1	0.000	
8	  N9	-15.766	33.784	-2.220	N.3	1	RES1	0.000	
9	 C29	-15.792	41.173	-7.977	C.3	1	RES1	0.000	
10	 C30	-14.457	41.213	-5.987	C.2	1	RES1	0.000	
11	 C31	-13.757	42.335	-6.391	C.2	1	RES1	0.000	
12	 C32	-12.766	42.904	-5.610	C.2	1	RES1	0.000	
13	 C33	-11.160	44.506	-5.291	C.2	1	RES1	0.000	
14	 C34	-11.443	42.949	-3.606	C.2	1	RES1	0.000	
15	 C35	-10.504	43.104	-1.220	C.2	1	RES1	0.000	
16	 C36	-9.728	42.358	-0.311	C.2	1	RES1	0.000	
17	 C37	-9.138	42.930	0.784	C.2	1	RES1	0.000	
18	 C38	-9.288	44.278	1.009	C.2	1	RES1	0.000	
19	 C39	-10.018	45.061	0.144	C.2	1	RES1	0.000	
20	 C40	-10.644	44.474	-0.965	C.2	1	RES1	0.000	
21	 C41	-12.465	42.323	-4.366	C.2	1	RES1	0.000	
22	 C42	-13.149	41.185	-3.962	C.2	1	RES1	0.000	
23	 C43	-14.143	40.620	-4.759	C.2	1	RES1	0.000	
24	 C44	-14.399	38.229	-3.962	C.2	1	RES1	0.000	
25	 C45	-15.476	37.256	-3.682	C.3	1	RES1	0.000	
26	 C46	-15.215	35.988	-3.271	C.3	1	RES1	0.000	
27	 C47	-16.256	34.956	-2.973	C.3	1	RES1	0.000	
28	 C48	-15.283	34.100	-0.868	C.3	1	RES1	0.000	
29	 C49	-14.969	32.844	-0.059	C.3	1	RES1	0.000	
30	 C50	-14.004	31.927	-0.814	C.3	1	RES1	0.000	
31	 C51	-14.520	31.655	-2.222	C.3	1	RES1	0.000	
32	 C52	-14.817	32.950	-2.975	C.3	1	RES1	0.000	
33	  F1	-8.702	44.830	2.105	 F	1	RES1	0.000	
@<TRIPOS>BOND
1 1 19 1
2 3 9 1
3 3 10 1
4 10 11 ar
5 10 23 ar
6 11 12 ar
7 2 12 ar
8 12 21 ar
9 2 13 ar
10 4 13 ar
11 4 14 ar
12 6 14 1
13 14 21 ar
14 6 15 1
15 15 16 ar
16 15 20 ar
17 16 17 ar
18 17 18 ar
19 18 19 ar
20 19 20 ar
21 21 22 ar
22 22 23 ar
23 7 23 1
24 5 24 2
25 7 24 1
26 24 25 1
27 25 26 1
28 26 27 1
29 8 27 1
30 8 28 1
31 28 29 1
32 29 30 1
33 30 31 1
34 31 32 1
35 8 32 1
36 18 33 1
@<TRIPOS>SUBSTRUCTURE
1	RES1	1	GROUP	1 ****	RES
