# created with PyMOL 2.5.2
@<TRIPOS>MOLECULE
EGFR_4I24_TargetProtein
33 36 1                 
SMALL
USER_CHARGES
@<TRIPOS>ATOM
1	 CL1	-10.206	46.746	0.424	Cl	1	RES1	0.000	
2	  N5	-12.101	43.993	-6.084	N.2	1	RES1	0.000	
3	  N6	-10.757	44.030	-4.117	N.2	1	RES1	0.000	
4	  N7	-11.091	42.438	-2.336	N.pl3	1	RES1	0.000	
5	  O7	-15.472	40.594	-6.756	O.3	1	RES1	0.000	
6	  N8	-14.904	39.474	-4.373	N.pl3	1	RES1	0.000	
7	  O8	-13.247	37.896	-3.939	O.2	1	RES1	0.000	
8	  N9	-15.669	33.770	-2.172	N.3	1	RES1	0.000	
9	 C24	-15.802	41.191	-8.003	C.3	1	RES1	0.000	
10	 C25	-14.444	41.227	-5.997	C.2	1	RES1	0.000	
11	 C26	-13.745	42.346	-6.424	C.2	1	RES1	0.000	
12	 C27	-12.757	42.922	-5.633	C.2	1	RES1	0.000	
13	 C28	-11.147	44.482	-5.297	C.2	1	RES1	0.000	
14	 C29	-11.437	42.965	-3.611	C.2	1	RES1	0.000	
15	 C30	-10.510	43.093	-1.211	C.2	1	RES1	0.000	
16	 C31	-9.747	42.318	-0.321	C.2	1	RES1	0.000	
17	 C32	-9.172	42.907	0.802	C.2	1	RES1	0.000	
18	 C33	-9.287	44.283	1.029	C.2	1	RES1	0.000	
19	 C34	-10.033	45.038	0.155	C.2	1	RES1	0.000	
20	 C35	-10.646	44.486	-0.958	C.2	1	RES1	0.000	
21	 C36	-12.469	42.322	-4.363	C.2	1	RES1	0.000	
22	 C37	-13.161	41.186	-3.952	C.2	1	RES1	0.000	
23	 C38	-14.185	40.619	-4.764	C.2	1	RES1	0.000	
24	 C39	-14.413	38.244	-3.981	C.2	1	RES1	0.000	
25	 C40	-15.502	37.264	-3.649	C.3	1	RES1	0.000	
26	 C41	-15.209	36.013	-3.267	C.3	1	RES1	0.000	
27	 C42	-16.211	34.939	-2.887	C.3	1	RES1	0.000	
28	 C43	-14.983	32.839	-3.123	C.3	1	RES1	0.000	
29	 C44	-14.376	31.633	-2.377	C.3	1	RES1	0.000	
30	 C45	-15.418	30.901	-1.555	C.3	1	RES1	0.000	
31	 C46	-16.191	31.877	-0.652	C.3	1	RES1	0.000	
32	 C47	-16.745	33.065	-1.433	C.3	1	RES1	0.000	
33	  F1	-8.712	44.826	2.114	 F	1	RES1	0.000	
@<TRIPOS>BOND
1 1 19 1
2 5 9 1
3 5 10 1
4 10 11 ar
5 10 23 ar
6 11 12 ar
7 2 12 ar
8 12 21 ar
9 2 13 ar
10 3 13 ar
11 3 14 ar
12 4 14 1
13 14 21 ar
14 4 15 1
15 15 16 ar
16 15 20 ar
17 16 17 ar
18 17 18 ar
19 18 19 ar
20 19 20 ar
21 21 22 ar
22 22 23 ar
23 6 23 1
24 6 24 1
25 7 24 2
26 24 25 1
27 25 26 1
28 26 27 1
29 8 27 1
30 8 28 1
31 28 29 1
32 29 30 1
33 30 31 1
34 31 32 1
35 8 32 1
36 18 33 1
@<TRIPOS>SUBSTRUCTURE
1	RES1	1	GROUP	1 ****	RES
