# created with PyMOL 2.5.2
@<TRIPOS>MOLECULE
EGFR_4I24_TargetProtein
33 36 1                 
SMALL
USER_CHARGES
@<TRIPOS>ATOM
1	 CL1	-10.409	46.739	0.331	Cl	1	RES1	0.000	
2	  N5	-12.105	44.006	-5.958	N.2	1	RES1	0.000	
3	  N6	-10.884	44.030	-3.888	N.2	1	RES1	0.000	
4	  N7	-10.981	42.383	-2.308	N.pl3	1	RES1	0.000	
5	  N8	-14.939	39.435	-4.447	N.pl3	1	RES1	0.000	
6	  N9	-15.771	33.758	-2.207	N.3	1	RES1	0.000	
7	 O10	-15.434	40.582	-6.822	O.3	1	RES1	0.000	
8	 O11	-13.276	37.863	-3.912	O.2	1	RES1	0.000	
9	 C30	-15.738	41.238	-8.068	C.3	1	RES1	0.000	
10	 C31	-14.425	41.189	-6.031	C.2	1	RES1	0.000	
11	 C32	-13.699	42.325	-6.391	C.2	1	RES1	0.000	
12	 C33	-12.732	42.895	-5.553	C.2	1	RES1	0.000	
13	 C34	-11.225	44.537	-5.105	C.2	1	RES1	0.000	
14	 C35	-11.461	42.899	-3.535	C.2	1	RES1	0.000	
15	 C36	-10.370	43.023	-1.189	C.2	1	RES1	0.000	
16	 C37	-9.505	42.380	-0.317	C.2	1	RES1	0.000	
17	 C38	-8.940	43.057	0.776	C.2	1	RES1	0.000	
18	 C39	-9.209	44.390	0.980	C.2	1	RES1	0.000	
19	 C40	-10.076	45.077	0.085	C.2	1	RES1	0.000	
20	 C41	-10.628	44.400	-0.982	C.2	1	RES1	0.000	
21	 C42	-12.480	42.278	-4.299	C.2	1	RES1	0.000	
22	 C43	-13.215	41.132	-3.918	C.2	1	RES1	0.000	
23	 C44	-14.201	40.590	-4.780	C.2	1	RES1	0.000	
24	 C45	-14.448	38.214	-4.032	C.2	1	RES1	0.000	
25	 C46	-15.574	37.234	-3.736	C.3	1	RES1	0.000	
26	 C47	-15.311	35.992	-3.320	C.3	1	RES1	0.000	
27	 C48	-16.315	34.926	-2.969	C.3	1	RES1	0.000	
28	 C49	-16.700	32.614	-2.361	C.3	1	RES1	0.000	
29	 C50	-16.135	31.366	-1.642	C.3	1	RES1	0.000	
30	 C51	-15.856	31.653	-0.184	C.3	1	RES1	0.000	
31	 C52	-14.981	32.920	-0.020	C.3	1	RES1	0.000	
32	 C53	-15.579	34.100	-0.787	C.3	1	RES1	0.000	
33	  F1	-8.683	45.039	2.024	 F	1	RES1	0.000	
@<TRIPOS>BOND
1 1 19 1
2 7 9 1
3 7 10 1
4 8 24 2
5 10 11 ar
6 10 23 ar
7 11 12 ar
8 2 12 ar
9 12 21 ar
10 2 13 ar
11 3 13 ar
12 3 14 ar
13 4 14 1
14 14 21 ar
15 4 15 1
16 15 16 ar
17 15 20 ar
18 16 17 ar
19 17 18 ar
20 18 19 ar
21 19 20 ar
22 21 22 ar
23 22 23 ar
24 5 23 1
25 5 24 1
26 24 25 1
27 25 26 1
28 26 27 1
29 6 27 1
30 6 28 1
31 28 29 1
32 29 30 1
33 30 31 1
34 31 32 1
35 6 32 1
36 18 33 1
@<TRIPOS>SUBSTRUCTURE
1	RES1	1	GROUP	1 ****	RES
