# created with PyMOL 2.5.2
@<TRIPOS>MOLECULE
BRD4_6YQN_TargetProtein
24 27 1                 
SMALL
USER_CHARGES
@<TRIPOS>ATOM
1	 CL1	25.743	17.894	-6.990	Cl	1	RES1	0.000	
2	  C1	26.015	15.103	1.300	C.3	1	RES1	0.000	
3	  N1	30.790	16.834	-0.001	N.2	1	RES1	0.000	
4	  S1	28.506	16.314	1.363	S.2	1	RES1	0.000	
5	  C2	27.222	15.486	0.537	C.2	1	RES1	0.000	
6	  N2	32.709	17.786	0.538	N.2	1	RES1	0.000	
7	  C3	27.547	15.290	-0.813	C.2	1	RES1	0.000	
8	  N3	32.922	16.945	-0.540	N.2	1	RES1	0.000	
9	  C4	26.631	14.566	-1.741	C.3	1	RES1	0.000	
10	  C5	28.793	15.874	-1.192	C.2	1	RES1	0.000	
11	  C6	29.482	16.338	-0.053	C.2	1	RES1	0.000	
12	  C7	31.431	17.694	0.850	C.2	1	RES1	0.000	
13	  C8	30.787	18.505	1.967	C.3	1	RES1	0.000	
14	  N8	30.587	15.784	-2.877	N.2	1	RES1	0.000	
15	  C9	31.780	16.399	-0.831	C.2	1	RES1	0.000	
16	 C10	31.548	15.303	-1.864	C.3	1	RES1	0.000	
17	 C11	32.815	14.958	-2.592	C.3	1	RES1	0.000	
18	 C48	29.336	16.018	-2.554	C.2	1	RES1	0.000	
19	 C49	28.419	16.485	-3.655	C.2	1	RES1	0.000	
20	 C50	27.313	17.318	-3.364	C.2	1	RES1	0.000	
21	 C51	26.506	17.745	-4.408	C.2	1	RES1	0.000	
22	 C52	26.762	17.366	-5.714	C.2	1	RES1	0.000	
23	 C53	27.868	16.560	-5.995	C.2	1	RES1	0.000	
24	 C54	28.691	16.117	-4.982	C.2	1	RES1	0.000	
@<TRIPOS>BOND
1 1 22 1
2 2 5 1
3 3 11 1
4 3 12 ar
5 3 15 ar
6 4 5 ar
7 4 11 ar
8 5 7 ar
9 6 8 ar
10 6 12 ar
11 7 9 1
12 7 10 ar
13 8 15 ar
14 10 11 ar
15 12 13 1
16 14 16 1
17 15 16 1
18 16 17 1
19 10 18 1
20 14 18 2
21 18 19 1
22 19 20 ar
23 19 24 ar
24 20 21 ar
25 21 22 ar
26 22 23 ar
27 23 24 ar
@<TRIPOS>SUBSTRUCTURE
1	RES1	1	GROUP	1 ****	RES
