# created with PyMOL 2.5.2
@<TRIPOS>MOLECULE
EGFR_4I24_TargetProtein
33 36 1                 
SMALL
USER_CHARGES
@<TRIPOS>ATOM
1	 CL1	-10.332	46.717	0.391	Cl	1	RES1	0.000	
2	  N5	-12.101	44.009	-6.047	N.2	1	RES1	0.000	
3	  N6	-10.800	44.047	-4.069	N.2	1	RES1	0.000	
4	  N7	-11.056	42.449	-2.334	N.pl3	1	RES1	0.000	
5	  N8	-14.880	39.475	-4.371	N.pl3	1	RES1	0.000	
6	  O8	-15.472	40.590	-6.747	O.3	1	RES1	0.000	
7	  N9	-15.700	33.780	-2.200	N.3	1	RES1	0.000	
8	  O9	-13.206	37.915	-3.883	O.2	1	RES1	0.000	
9	 C26	-15.801	41.207	-8.010	C.3	1	RES1	0.000	
10	 C27	-14.465	41.204	-6.009	C.2	1	RES1	0.000	
11	 C28	-13.737	42.334	-6.406	C.2	1	RES1	0.000	
12	 C29	-12.751	42.922	-5.606	C.2	1	RES1	0.000	
13	 C30	-11.151	44.478	-5.277	C.2	1	RES1	0.000	
14	 C31	-11.444	42.953	-3.607	C.2	1	RES1	0.000	
15	 C32	-10.443	43.045	-1.228	C.2	1	RES1	0.000	
16	 C33	-9.679	42.327	-0.317	C.2	1	RES1	0.000	
17	 C34	-9.093	42.933	0.807	C.2	1	RES1	0.000	
18	 C35	-9.291	44.297	0.999	C.2	1	RES1	0.000	
19	 C36	-10.070	45.044	0.136	C.2	1	RES1	0.000	
20	 C37	-10.653	44.418	-0.980	C.2	1	RES1	0.000	
21	 C38	-12.460	42.313	-4.353	C.2	1	RES1	0.000	
22	 C39	-13.133	41.151	-3.958	C.2	1	RES1	0.000	
23	 C40	-14.155	40.623	-4.765	C.2	1	RES1	0.000	
24	 C41	-14.413	38.243	-3.996	C.2	1	RES1	0.000	
25	 C42	-15.517	37.272	-3.650	C.3	1	RES1	0.000	
26	 C43	-15.275	36.019	-3.268	C.3	1	RES1	0.000	
27	 C44	-16.242	34.966	-2.921	C.3	1	RES1	0.000	
28	 C45	-14.991	32.873	-3.139	C.3	1	RES1	0.000	
29	 C46	-14.353	31.695	-2.360	C.3	1	RES1	0.000	
30	 C47	-15.408	30.932	-1.586	C.3	1	RES1	0.000	
31	 C48	-16.214	31.904	-0.685	C.3	1	RES1	0.000	
32	 C49	-16.772	33.066	-1.477	C.3	1	RES1	0.000	
33	  F1	-8.719	44.882	2.097	 F	1	RES1	0.000	
@<TRIPOS>BOND
1 1 19 1
2 6 9 1
3 6 10 1
4 10 11 ar
5 10 23 ar
6 11 12 ar
7 2 12 ar
8 12 21 ar
9 2 13 ar
10 3 13 ar
11 3 14 ar
12 4 14 1
13 14 21 ar
14 4 15 1
15 15 16 ar
16 15 20 ar
17 16 17 ar
18 17 18 ar
19 18 19 ar
20 19 20 ar
21 21 22 ar
22 22 23 ar
23 5 23 1
24 5 24 1
25 8 24 2
26 24 25 1
27 25 26 1
28 26 27 1
29 7 27 1
30 7 28 1
31 28 29 1
32 29 30 1
33 30 31 1
34 31 32 1
35 7 32 1
36 18 33 1
@<TRIPOS>SUBSTRUCTURE
1	RES1	1	GROUP	1 ****	RES
