# created with PyMOL 2.5.2
@<TRIPOS>MOLECULE
EGFR_4I24_TargetProtein
33 36 1                 
SMALL
USER_CHARGES
@<TRIPOS>ATOM
1	 CL1	-10.323	46.723	0.320	Cl	1	RES1	0.000	
2	  N5	-12.119	44.038	-6.047	N.2	1	RES1	0.000	
3	  N6	-10.818	44.055	-4.045	N.2	1	RES1	0.000	
4	  N7	-11.060	42.403	-2.328	N.pl3	1	RES1	0.000	
5	  O7	-15.468	40.603	-6.762	O.3	1	RES1	0.000	
6	  N8	-14.899	39.461	-4.385	N.pl3	1	RES1	0.000	
7	  O8	-13.237	37.919	-3.894	O.2	1	RES1	0.000	
8	  N9	-15.680	33.774	-2.170	N.3	1	RES1	0.000	
9	 C28	-15.801	41.243	-8.026	C.3	1	RES1	0.000	
10	 C29	-14.446	41.217	-6.013	C.2	1	RES1	0.000	
11	 C30	-13.735	42.339	-6.406	C.2	1	RES1	0.000	
12	 C31	-12.717	42.924	-5.606	C.2	1	RES1	0.000	
13	 C32	-11.158	44.518	-5.249	C.2	1	RES1	0.000	
14	 C33	-11.420	42.952	-3.603	C.2	1	RES1	0.000	
15	 C34	-10.445	43.012	-1.211	C.2	1	RES1	0.000	
16	 C35	-9.681	42.282	-0.284	C.2	1	RES1	0.000	
17	 C36	-9.101	42.920	0.827	C.2	1	RES1	0.000	
18	 C37	-9.306	44.311	0.995	C.2	1	RES1	0.000	
19	 C38	-10.083	45.009	0.091	C.2	1	RES1	0.000	
20	 C39	-10.644	44.368	-0.990	C.2	1	RES1	0.000	
21	 C40	-12.441	42.329	-4.354	C.2	1	RES1	0.000	
22	 C41	-13.174	41.206	-3.953	C.2	1	RES1	0.000	
23	 C42	-14.152	40.618	-4.756	C.2	1	RES1	0.000	
24	 C43	-14.394	38.230	-3.978	C.2	1	RES1	0.000	
25	 C44	-15.517	37.281	-3.657	C.3	1	RES1	0.000	
26	 C45	-15.239	36.012	-3.264	C.3	1	RES1	0.000	
27	 C46	-16.238	34.947	-2.890	C.3	1	RES1	0.000	
28	 C47	-15.014	32.817	-3.088	C.3	1	RES1	0.000	
29	 C48	-14.434	31.660	-2.335	C.3	1	RES1	0.000	
30	 C49	-15.485	30.931	-1.493	C.3	1	RES1	0.000	
31	 C50	-16.231	31.909	-0.617	C.3	1	RES1	0.000	
32	 C51	-16.766	33.097	-1.416	C.3	1	RES1	0.000	
33	  F1	-8.736	44.909	2.068	 F	1	RES1	0.000	
@<TRIPOS>BOND
1 1 19 1
2 5 9 1
3 5 10 1
4 10 11 ar
5 10 23 ar
6 11 12 ar
7 2 12 ar
8 12 21 ar
9 2 13 ar
10 3 13 ar
11 3 14 ar
12 4 14 1
13 14 21 ar
14 4 15 1
15 15 16 ar
16 15 20 ar
17 16 17 ar
18 17 18 ar
19 18 19 ar
20 19 20 ar
21 21 22 ar
22 22 23 ar
23 6 23 1
24 6 24 1
25 7 24 2
26 24 25 1
27 25 26 1
28 26 27 1
29 8 27 1
30 8 28 1
31 28 29 1
32 29 30 1
33 30 31 1
34 31 32 1
35 8 32 1
36 18 33 1
@<TRIPOS>SUBSTRUCTURE
1	RES1	1	GROUP	1 ****	RES
