# created with PyMOL 2.5.2
@<TRIPOS>MOLECULE
HDAC2_4LY1_TargetProtein
25 27 1                 
SMALL
USER_CHARGES
@<TRIPOS>ATOM
1	  S1	19.548	-20.454	5.092	S.2	1	RES1	0.000	
2	  N4	27.251	-16.352	-1.052	N.pl3	1	RES1	0.000	
3	  N5	21.546	-18.989	0.374	N.pl3	1	RES1	0.000	
4	  O5	27.294	-15.065	-2.981	O.2	1	RES1	0.000	
5	  N6	19.723	-19.862	-1.638	N.pl3	1	RES1	0.000	
6	  O6	20.932	-17.291	-1.088	O.2	1	RES1	0.000	
7	 C23	29.328	-15.437	-1.807	C.3	1	RES1	0.000	
8	 C24	27.845	-15.610	-2.041	C.2	1	RES1	0.000	
9	 C25	25.903	-16.721	-0.898	C.2	1	RES1	0.000	
10	 C26	24.838	-15.781	-1.133	C.2	1	RES1	0.000	
11	 C27	23.508	-16.214	-0.952	C.2	1	RES1	0.000	
12	 C28	23.223	-17.525	-0.614	C.2	1	RES1	0.000	
13	 C29	21.778	-17.916	-0.458	C.2	1	RES1	0.000	
14	 C30	20.277	-19.514	0.729	C.2	1	RES1	0.000	
15	 C31	19.898	-19.654	2.086	C.2	1	RES1	0.000	
16	 C32	18.658	-20.246	2.461	C.2	1	RES1	0.000	
17	 C33	18.297	-20.310	3.879	C.2	1	RES1	0.000	
18	 C34	17.060	-20.249	4.462	C.2	1	RES1	0.000	
19	 C35	17.101	-20.322	5.894	C.2	1	RES1	0.000	
20	 C36	18.377	-20.444	6.372	C.2	1	RES1	0.000	
21	 C37	17.817	-20.652	1.415	C.2	1	RES1	0.000	
22	 C38	18.178	-20.542	0.096	C.2	1	RES1	0.000	
23	 C39	19.398	-19.933	-0.274	C.2	1	RES1	0.000	
24	 C40	24.230	-18.422	-0.377	C.2	1	RES1	0.000	
25	 C41	25.586	-18.026	-0.527	C.2	1	RES1	0.000	
@<TRIPOS>BOND
1 1 17 ar
2 1 20 ar
3 7 8 1
4 2 8 1
5 4 8 2
6 2 9 1
7 9 10 ar
8 9 25 ar
9 10 11 ar
10 11 12 ar
11 12 13 1
12 12 24 ar
13 3 13 1
14 6 13 2
15 3 14 1
16 14 15 ar
17 14 23 ar
18 15 16 ar
19 16 17 1
20 16 21 ar
21 17 18 ar
22 18 19 ar
23 19 20 ar
24 21 22 ar
25 22 23 ar
26 5 23 1
27 24 25 ar
@<TRIPOS>SUBSTRUCTURE
1	RES1	1	GROUP	1 ****	RES
