# created with PyMOL 2.5.2
@<TRIPOS>MOLECULE
HDAC2_4LY1_TargetProtein
25 27 1                 
SMALL
USER_CHARGES
@<TRIPOS>ATOM
1	  S1	19.379	-20.540	5.200	S.2	1	RES1	0.000	
2	  N4	27.281	-16.392	-1.146	N.pl3	1	RES1	0.000	
3	  N5	21.583	-18.946	0.478	N.pl3	1	RES1	0.000	
4	  O5	27.284	-15.026	-3.035	O.2	1	RES1	0.000	
5	  N6	19.823	-19.852	-1.569	N.pl3	1	RES1	0.000	
6	  O6	20.915	-17.217	-0.938	O.2	1	RES1	0.000	
7	 C26	29.351	-15.485	-1.978	C.3	1	RES1	0.000	
8	 C27	27.859	-15.584	-2.130	C.2	1	RES1	0.000	
9	 C28	25.926	-16.709	-0.988	C.2	1	RES1	0.000	
10	 C29	25.565	-18.009	-0.601	C.2	1	RES1	0.000	
11	 C30	24.271	-18.396	-0.410	C.2	1	RES1	0.000	
12	 C31	23.218	-17.475	-0.614	C.2	1	RES1	0.000	
13	 C32	21.795	-17.888	-0.388	C.2	1	RES1	0.000	
14	 C33	20.357	-19.544	0.806	C.2	1	RES1	0.000	
15	 C34	19.960	-19.660	2.162	C.2	1	RES1	0.000	
16	 C35	18.726	-20.226	2.490	C.2	1	RES1	0.000	
17	 C36	18.263	-20.319	3.886	C.2	1	RES1	0.000	
18	 C37	16.960	-20.261	4.393	C.2	1	RES1	0.000	
19	 C38	16.903	-20.393	5.828	C.2	1	RES1	0.000	
20	 C39	18.122	-20.559	6.366	C.2	1	RES1	0.000	
21	 C40	17.867	-20.603	1.463	C.2	1	RES1	0.000	
22	 C41	18.264	-20.500	0.115	C.2	1	RES1	0.000	
23	 C42	19.503	-20.005	-0.225	C.2	1	RES1	0.000	
24	 C43	23.557	-16.152	-0.979	C.2	1	RES1	0.000	
25	 C44	24.866	-15.792	-1.168	C.2	1	RES1	0.000	
@<TRIPOS>BOND
1 1 17 ar
2 1 20 ar
3 7 8 1
4 2 8 1
5 4 8 2
6 2 9 1
7 9 10 ar
8 9 25 ar
9 10 11 ar
10 11 12 ar
11 12 13 1
12 12 24 ar
13 3 13 1
14 6 13 2
15 3 14 1
16 14 15 ar
17 14 23 ar
18 15 16 ar
19 16 17 1
20 16 21 ar
21 17 18 ar
22 18 19 ar
23 19 20 ar
24 21 22 ar
25 22 23 ar
26 5 23 1
27 24 25 ar
@<TRIPOS>SUBSTRUCTURE
1	RES1	1	GROUP	1 ****	RES
