# created with PyMOL 2.5.2
@<TRIPOS>MOLECULE
HDAC2_4LY1_TargetProtein
25 27 1                 
SMALL
USER_CHARGES
@<TRIPOS>ATOM
1	  S1	19.396	-20.580	5.156	S.2	1	RES1	0.000	
2	  N4	27.286	-16.371	-1.132	N.pl3	1	RES1	0.000	
3	  N5	21.584	-18.957	0.455	N.pl3	1	RES1	0.000	
4	  N6	19.831	-19.893	-1.560	N.pl3	1	RES1	0.000	
5	  O8	27.290	-15.040	-3.048	O.2	1	RES1	0.000	
6	  O9	20.940	-17.295	-1.096	O.2	1	RES1	0.000	
7	 C22	29.328	-15.461	-1.936	C.3	1	RES1	0.000	
8	 C23	27.852	-15.577	-2.116	C.2	1	RES1	0.000	
9	 C24	25.918	-16.702	-0.984	C.2	1	RES1	0.000	
10	 C25	24.861	-15.789	-1.157	C.2	1	RES1	0.000	
11	 C26	23.558	-16.193	-0.979	C.2	1	RES1	0.000	
12	 C27	23.248	-17.489	-0.614	C.2	1	RES1	0.000	
13	 C28	21.808	-17.893	-0.417	C.2	1	RES1	0.000	
14	 C29	20.302	-19.462	0.810	C.2	1	RES1	0.000	
15	 C30	19.891	-19.566	2.138	C.2	1	RES1	0.000	
16	 C31	18.658	-20.122	2.509	C.2	1	RES1	0.000	
17	 C32	18.239	-20.292	3.891	C.2	1	RES1	0.000	
18	 C33	16.940	-20.242	4.458	C.2	1	RES1	0.000	
19	 C34	16.943	-20.435	5.855	C.2	1	RES1	0.000	
20	 C35	18.195	-20.636	6.369	C.2	1	RES1	0.000	
21	 C36	17.877	-20.654	1.463	C.2	1	RES1	0.000	
22	 C37	18.275	-20.523	0.136	C.2	1	RES1	0.000	
23	 C38	19.476	-19.916	-0.211	C.2	1	RES1	0.000	
24	 C39	24.283	-18.434	-0.400	C.2	1	RES1	0.000	
25	 C40	25.616	-18.010	-0.571	C.2	1	RES1	0.000	
@<TRIPOS>BOND
1 1 17 ar
2 1 20 ar
3 7 8 1
4 2 8 1
5 5 8 2
6 2 9 1
7 9 10 ar
8 9 25 ar
9 10 11 ar
10 11 12 ar
11 12 13 1
12 12 24 ar
13 3 13 1
14 6 13 2
15 3 14 1
16 14 15 ar
17 14 23 ar
18 15 16 ar
19 16 17 1
20 16 21 ar
21 17 18 ar
22 18 19 ar
23 19 20 ar
24 21 22 ar
25 22 23 ar
26 4 23 1
27 24 25 ar
@<TRIPOS>SUBSTRUCTURE
1	RES1	1	GROUP	1 ****	RES
