# created with PyMOL 2.5.2
@<TRIPOS>MOLECULE
EGFR_6JWL_TargetProtein
37 40 1                 
SMALL
USER_CHARGES
@<TRIPOS>ATOM
1	  C1	-51.956	3.579	-14.719	C.3	1	RES1	0.000	
2	  N1	-49.009	-0.608	-14.166	N.pl3	1	RES1	0.000	
3	  O1	-52.006	2.852	-15.978	O.3	1	RES1	0.000	
4	  C2	-51.350	1.607	-16.046	C.2	1	RES1	0.000	
5	  N2	-46.859	-2.813	-14.326	N.3	1	RES1	0.000	
6	  O2	-50.502	-3.083	-18.367	O.2	1	RES1	0.000	
7	  C3	-50.543	1.083	-15.036	C.2	1	RES1	0.000	
8	  N3	-49.583	-2.219	-16.418	N.pl3	1	RES1	0.000	
9	  C4	-49.902	-0.153	-15.171	C.2	1	RES1	0.000	
10	  C5	-49.533	-0.748	-12.795	C.3	1	RES1	0.000	
11	  C6	-47.578	-0.377	-14.349	C.3	1	RES1	0.000	
12	  C7	-46.703	-1.470	-13.728	C.3	1	RES1	0.000	
13	  C8	-46.782	-3.861	-13.279	C.3	1	RES1	0.000	
14	  C9	-45.800	-3.055	-15.360	C.3	1	RES1	0.000	
15	 C10	-50.171	-0.886	-16.344	C.2	1	RES1	0.000	
16	 N10	-52.380	1.443	-18.263	N.pl3	1	RES1	0.000	
17	 C11	-49.753	-3.174	-17.417	C.2	1	RES1	0.000	
18	 N11	-53.336	2.067	-20.300	N.2	1	RES1	0.000	
19	 C12	-48.898	-4.362	-17.164	C.3	1	RES1	0.000	
20	 N12	-49.332	-1.395	-23.835	N.2	1	RES1	0.000	
21	 C13	-49.395	-5.600	-17.321	C.3	1	RES1	0.000	
22	 N13	-51.407	0.680	-20.289	N.2	1	RES1	0.000	
23	 C46	-50.983	-0.395	-17.346	C.2	1	RES1	0.000	
24	 C47	-51.595	0.876	-17.220	C.2	1	RES1	0.000	
25	 C48	-52.360	1.358	-19.661	C.2	1	RES1	0.000	
26	 C49	-53.314	2.016	-21.632	C.2	1	RES1	0.000	
27	 C50	-52.408	1.296	-22.401	C.2	1	RES1	0.000	
28	 C51	-51.414	0.641	-21.655	C.2	1	RES1	0.000	
29	 C52	-50.373	-0.166	-22.296	C.2	1	RES1	0.000	
30	 C53	-50.473	-0.654	-23.567	C.2	1	RES1	0.000	
31	 C54	-49.076	-2.084	-25.086	C.3	1	RES1	0.000	
32	 C55	-48.480	-1.383	-22.734	C.2	1	RES1	0.000	
33	 C56	-47.263	-1.952	-22.539	C.2	1	RES1	0.000	
34	 C57	-46.614	-1.780	-21.310	C.2	1	RES1	0.000	
35	 C58	-47.228	-1.004	-20.316	C.2	1	RES1	0.000	
36	 C59	-48.458	-0.429	-20.524	C.2	1	RES1	0.000	
37	 C60	-49.120	-0.612	-21.741	C.2	1	RES1	0.000	
@<TRIPOS>BOND
1 1 3 1
2 2 9 1
3 2 10 1
4 2 11 1
5 3 4 1
6 4 7 ar
7 4 24 ar
8 5 12 1
9 5 13 1
10 5 14 1
11 7 9 ar
12 11 12 1
13 8 15 1
14 9 15 ar
15 15 23 ar
16 16 24 1
17 16 25 1
18 6 17 2
19 8 17 1
20 17 19 1
21 18 25 ar
22 18 26 ar
23 19 21 1
24 20 30 ar
25 20 31 1
26 20 32 ar
27 22 25 ar
28 22 28 ar
29 23 24 ar
30 26 27 ar
31 27 28 ar
32 28 29 1
33 29 30 ar
34 29 37 ar
35 32 33 ar
36 32 37 ar
37 33 34 ar
38 34 35 ar
39 35 36 ar
40 36 37 ar
@<TRIPOS>SUBSTRUCTURE
1	RES1	1	GROUP	1 ****	RES
