# created with PyMOL 2.5.2
@<TRIPOS>MOLECULE
EGFR_6JWL_TargetProtein
37 40 1                 
SMALL
USER_CHARGES
@<TRIPOS>ATOM
1	  C1	-51.814	3.668	-14.780	C.3	1	RES1	0.000	
2	  N1	-49.066	-0.575	-13.953	N.pl3	1	RES1	0.000	
3	  O1	-51.870	2.941	-16.008	O.3	1	RES1	0.000	
4	  C2	-51.244	1.659	-16.018	C.2	1	RES1	0.000	
5	  N2	-46.939	-2.817	-13.891	N.3	1	RES1	0.000	
6	  O2	-50.314	-3.055	-18.212	O.2	1	RES1	0.000	
7	  C3	-50.450	1.179	-14.984	C.2	1	RES1	0.000	
8	  N3	-49.407	-2.120	-16.288	N.pl3	1	RES1	0.000	
9	  C4	-49.866	-0.093	-15.020	C.2	1	RES1	0.000	
10	  C5	-49.530	-1.728	-13.162	C.3	1	RES1	0.000	
11	  C6	-47.588	-0.385	-14.055	C.3	1	RES1	0.000	
12	  C7	-46.799	-1.473	-13.281	C.3	1	RES1	0.000	
13	  C8	-48.268	-2.915	-14.539	C.3	1	RES1	0.000	
14	  C9	-45.890	-3.118	-14.879	C.3	1	RES1	0.000	
15	 C10	-50.083	-0.875	-16.169	C.2	1	RES1	0.000	
16	 N10	-52.288	1.410	-18.194	N.pl3	1	RES1	0.000	
17	 C11	-49.542	-3.063	-17.275	C.2	1	RES1	0.000	
18	 N11	-53.324	1.931	-20.210	N.2	1	RES1	0.000	
19	 C12	-48.630	-4.226	-17.074	C.3	1	RES1	0.000	
20	 N12	-49.475	-1.348	-23.972	N.2	1	RES1	0.000	
21	 C13	-49.046	-5.497	-17.238	C.3	1	RES1	0.000	
22	 N13	-51.376	0.606	-20.273	N.2	1	RES1	0.000	
23	 C46	-50.875	-0.386	-17.212	C.2	1	RES1	0.000	
24	 C47	-51.471	0.902	-17.162	C.2	1	RES1	0.000	
25	 C48	-52.317	1.320	-19.585	C.2	1	RES1	0.000	
26	 C49	-53.390	1.841	-21.554	C.2	1	RES1	0.000	
27	 C50	-52.472	1.166	-22.318	C.2	1	RES1	0.000	
28	 C51	-51.459	0.541	-21.593	C.2	1	RES1	0.000	
29	 C52	-50.414	-0.233	-22.280	C.2	1	RES1	0.000	
30	 C53	-50.580	-0.663	-23.596	C.2	1	RES1	0.000	
31	 C54	-49.272	-1.962	-25.284	C.3	1	RES1	0.000	
32	 C55	-48.536	-1.378	-22.927	C.2	1	RES1	0.000	
33	 C56	-47.274	-1.937	-22.859	C.2	1	RES1	0.000	
34	 C57	-46.548	-1.800	-21.684	C.2	1	RES1	0.000	
35	 C58	-47.094	-1.078	-20.611	C.2	1	RES1	0.000	
36	 C59	-48.339	-0.534	-20.704	C.2	1	RES1	0.000	
37	 C60	-49.093	-0.669	-21.858	C.2	1	RES1	0.000	
@<TRIPOS>BOND
1 1 3 1
2 2 9 1
3 2 10 1
4 2 11 1
5 3 4 1
6 4 7 ar
7 4 24 ar
8 5 12 1
9 5 13 1
10 5 14 1
11 7 9 ar
12 11 12 1
13 8 15 1
14 9 15 ar
15 15 23 ar
16 16 24 1
17 16 25 1
18 6 17 2
19 8 17 1
20 17 19 1
21 18 25 ar
22 18 26 ar
23 19 21 1
24 20 30 ar
25 20 31 1
26 20 32 ar
27 22 25 ar
28 22 28 ar
29 23 24 ar
30 26 27 ar
31 27 28 ar
32 28 29 1
33 29 30 ar
34 29 37 ar
35 32 33 ar
36 32 37 ar
37 33 34 ar
38 34 35 ar
39 35 36 ar
40 36 37 ar
@<TRIPOS>SUBSTRUCTURE
1	RES1	1	GROUP	1 ****	RES
