# created with PyMOL 2.5.2
@<TRIPOS>MOLECULE
EGFR_6JWL_TargetProtein
37 40 1                 
SMALL
USER_CHARGES
@<TRIPOS>ATOM
1	  C1	-51.873	3.702	-14.788	C.3	1	RES1	0.000	
2	  N1	-49.061	-0.539	-14.041	N.pl3	1	RES1	0.000	
3	  O1	-51.919	2.975	-16.044	O.3	1	RES1	0.000	
4	  C2	-51.283	1.732	-16.089	C.2	1	RES1	0.000	
5	  N2	-47.021	-2.817	-14.180	N.3	1	RES1	0.000	
6	  O2	-50.115	-2.837	-18.451	O.2	1	RES1	0.000	
7	  C3	-50.474	1.221	-15.030	C.2	1	RES1	0.000	
8	  N3	-49.409	-2.051	-16.371	N.pl3	1	RES1	0.000	
9	  C4	-49.871	-0.032	-15.112	C.2	1	RES1	0.000	
10	  C5	-49.595	-1.791	-13.417	C.3	1	RES1	0.000	
11	  C6	-47.608	-0.363	-14.109	C.3	1	RES1	0.000	
12	  C7	-46.868	-1.539	-13.448	C.3	1	RES1	0.000	
13	  C8	-45.935	-3.003	-15.136	C.3	1	RES1	0.000	
14	  C9	-47.038	-3.979	-13.252	C.3	1	RES1	0.000	
15	 C10	-50.027	-0.751	-16.312	C.2	1	RES1	0.000	
16	 N10	-52.338	1.468	-18.240	N.pl3	1	RES1	0.000	
17	 C11	-49.534	-3.002	-17.374	C.2	1	RES1	0.000	
18	 N11	-53.378	1.976	-20.251	N.2	1	RES1	0.000	
19	 C12	-48.857	-4.286	-17.104	C.3	1	RES1	0.000	
20	 N12	-49.390	-1.440	-23.855	N.2	1	RES1	0.000	
21	 C13	-49.373	-5.496	-17.325	C.3	1	RES1	0.000	
22	 N13	-51.427	0.628	-20.307	N.2	1	RES1	0.000	
23	 C48	-50.803	-0.276	-17.358	C.2	1	RES1	0.000	
24	 C49	-51.456	0.967	-17.239	C.2	1	RES1	0.000	
25	 C50	-52.375	1.366	-19.627	C.2	1	RES1	0.000	
26	 C51	-53.454	1.874	-21.608	C.2	1	RES1	0.000	
27	 C52	-52.545	1.145	-22.366	C.2	1	RES1	0.000	
28	 C53	-51.502	0.551	-21.644	C.2	1	RES1	0.000	
29	 C54	-50.455	-0.246	-22.277	C.2	1	RES1	0.000	
30	 C55	-50.579	-0.761	-23.553	C.2	1	RES1	0.000	
31	 C56	-49.122	-2.082	-25.135	C.3	1	RES1	0.000	
32	 C57	-48.525	-1.391	-22.787	C.2	1	RES1	0.000	
33	 C58	-47.258	-1.887	-22.650	C.2	1	RES1	0.000	
34	 C59	-46.578	-1.689	-21.458	C.2	1	RES1	0.000	
35	 C60	-47.198	-0.979	-20.414	C.2	1	RES1	0.000	
36	 C61	-48.506	-0.483	-20.578	C.2	1	RES1	0.000	
37	 C62	-49.191	-0.649	-21.773	C.2	1	RES1	0.000	
@<TRIPOS>BOND
1 1 3 1
2 2 9 1
3 2 10 1
4 2 11 1
5 3 4 1
6 4 7 ar
7 4 24 ar
8 5 12 1
9 5 13 1
10 5 14 1
11 7 9 ar
12 11 12 1
13 8 15 1
14 9 15 ar
15 15 23 ar
16 16 24 1
17 16 25 1
18 6 17 2
19 8 17 1
20 17 19 1
21 18 25 ar
22 18 26 ar
23 19 21 1
24 20 30 ar
25 20 31 1
26 20 32 ar
27 22 25 ar
28 22 28 ar
29 23 24 ar
30 26 27 ar
31 27 28 ar
32 28 29 1
33 29 30 ar
34 29 37 ar
35 32 33 ar
36 32 37 ar
37 33 34 ar
38 34 35 ar
39 35 36 ar
40 36 37 ar
@<TRIPOS>SUBSTRUCTURE
1	RES1	1	GROUP	1 ****	RES
