# created with PyMOL 2.5.2
@<TRIPOS>MOLECULE
EGFR_6JWL_TargetProtein
37 40 1                 
SMALL
USER_CHARGES
@<TRIPOS>ATOM
1	  C1	-51.834	3.539	-14.729	C.3	1	RES1	0.000	
2	  N1	-48.953	-0.657	-14.184	N.pl3	1	RES1	0.000	
3	  O1	-51.925	2.853	-15.954	O.3	1	RES1	0.000	
4	  C2	-51.285	1.596	-16.074	C.2	1	RES1	0.000	
5	  N2	-46.660	-2.827	-14.104	N.3	1	RES1	0.000	
6	  O2	-50.296	-2.931	-18.552	O.2	1	RES1	0.000	
7	  C3	-50.432	1.055	-15.063	C.2	1	RES1	0.000	
8	  N3	-49.458	-2.194	-16.485	N.pl3	1	RES1	0.000	
9	  C4	-49.815	-0.181	-15.203	C.2	1	RES1	0.000	
10	  C5	-49.483	-0.840	-12.821	C.3	1	RES1	0.000	
11	  C6	-47.507	-0.392	-14.365	C.3	1	RES1	0.000	
12	  C7	-46.596	-1.424	-13.660	C.3	1	RES1	0.000	
13	  C8	-48.013	-3.248	-14.461	C.3	1	RES1	0.000	
14	  C9	-45.692	-3.127	-15.153	C.3	1	RES1	0.000	
15	 C10	-50.031	-0.888	-16.380	C.2	1	RES1	0.000	
16	 N10	-52.361	1.430	-18.229	N.pl3	1	RES1	0.000	
17	 C11	-49.651	-3.098	-17.531	C.2	1	RES1	0.000	
18	 N11	-53.430	2.000	-20.308	N.2	1	RES1	0.000	
19	 C12	-48.904	-4.394	-17.298	C.3	1	RES1	0.000	
20	 N12	-49.333	-1.463	-23.702	N.2	1	RES1	0.000	
21	 C13	-49.449	-5.589	-17.514	C.3	1	RES1	0.000	
22	 N13	-51.470	0.656	-20.232	N.2	1	RES1	0.000	
23	 C48	-50.862	-0.367	-17.369	C.2	1	RES1	0.000	
24	 C49	-51.487	0.875	-17.238	C.2	1	RES1	0.000	
25	 C50	-52.442	1.370	-19.613	C.2	1	RES1	0.000	
26	 C51	-53.424	1.916	-21.637	C.2	1	RES1	0.000	
27	 C52	-52.472	1.180	-22.350	C.2	1	RES1	0.000	
28	 C53	-51.510	0.571	-21.589	C.2	1	RES1	0.000	
29	 C54	-50.416	-0.239	-22.176	C.2	1	RES1	0.000	
30	 C55	-50.467	-0.759	-23.467	C.2	1	RES1	0.000	
31	 C56	-49.024	-2.152	-24.940	C.3	1	RES1	0.000	
32	 C57	-48.493	-1.380	-22.616	C.2	1	RES1	0.000	
33	 C58	-47.216	-1.949	-22.381	C.2	1	RES1	0.000	
34	 C59	-46.638	-1.709	-21.149	C.2	1	RES1	0.000	
35	 C60	-47.260	-0.953	-20.161	C.2	1	RES1	0.000	
36	 C61	-48.509	-0.429	-20.392	C.2	1	RES1	0.000	
37	 C62	-49.148	-0.615	-21.620	C.2	1	RES1	0.000	
@<TRIPOS>BOND
1 1 3 1
2 2 9 1
3 2 10 1
4 2 11 1
5 3 4 1
6 4 7 ar
7 4 24 ar
8 5 12 1
9 5 13 1
10 5 14 1
11 7 9 ar
12 11 12 1
13 8 15 1
14 9 15 ar
15 15 23 ar
16 16 24 1
17 16 25 1
18 6 17 2
19 8 17 1
20 17 19 1
21 18 25 ar
22 18 26 ar
23 19 21 1
24 20 30 ar
25 20 31 1
26 20 32 ar
27 22 25 ar
28 22 28 ar
29 23 24 ar
30 26 27 ar
31 27 28 ar
32 28 29 1
33 29 30 ar
34 29 37 ar
35 32 33 ar
36 32 37 ar
37 33 34 ar
38 34 35 ar
39 35 36 ar
40 36 37 ar
@<TRIPOS>SUBSTRUCTURE
1	RES1	1	GROUP	1 ****	RES
