# created with PyMOL 2.5.2
@<TRIPOS>MOLECULE
EGFR_6JWL_TargetProtein
37 40 1                 
SMALL
USER_CHARGES
@<TRIPOS>ATOM
1	  C1	-51.827	3.692	-14.803	C.3	1	RES1	0.000	
2	  N1	-49.151	-0.582	-13.970	N.pl3	1	RES1	0.000	
3	  O1	-51.842	2.984	-16.069	O.3	1	RES1	0.000	
4	  C2	-51.216	1.715	-16.079	C.2	1	RES1	0.000	
5	  N2	-46.972	-2.832	-13.999	N.3	1	RES1	0.000	
6	  O2	-50.149	-2.903	-18.417	O.2	1	RES1	0.000	
7	  C3	-50.465	1.214	-15.029	C.2	1	RES1	0.000	
8	  N3	-49.369	-2.056	-16.397	N.pl3	1	RES1	0.000	
9	  C4	-49.868	-0.065	-15.106	C.2	1	RES1	0.000	
10	  C5	-49.718	-1.676	-13.232	C.3	1	RES1	0.000	
11	  C6	-47.668	-0.357	-13.956	C.3	1	RES1	0.000	
12	  C7	-46.932	-1.545	-13.279	C.3	1	RES1	0.000	
13	  C8	-47.157	-3.994	-13.137	C.3	1	RES1	0.000	
14	  C9	-45.814	-3.032	-14.902	C.3	1	RES1	0.000	
15	 C10	-50.015	-0.804	-16.295	C.2	1	RES1	0.000	
16	 N10	-52.286	1.480	-18.250	N.pl3	1	RES1	0.000	
17	 C11	-49.491	-3.009	-17.396	C.2	1	RES1	0.000	
18	 N11	-53.366	1.988	-20.253	N.2	1	RES1	0.000	
19	 C12	-48.714	-4.271	-17.148	C.3	1	RES1	0.000	
20	 N12	-49.477	-1.420	-23.938	N.2	1	RES1	0.000	
21	 C13	-49.182	-5.502	-17.344	C.3	1	RES1	0.000	
22	 N13	-51.424	0.638	-20.315	N.2	1	RES1	0.000	
23	 C49	-50.813	-0.290	-17.341	C.2	1	RES1	0.000	
24	 C50	-51.420	0.992	-17.261	C.2	1	RES1	0.000	
25	 C51	-52.336	1.360	-19.651	C.2	1	RES1	0.000	
26	 C52	-53.438	1.889	-21.578	C.2	1	RES1	0.000	
27	 C53	-52.555	1.163	-22.366	C.2	1	RES1	0.000	
28	 C54	-51.528	0.550	-21.657	C.2	1	RES1	0.000	
29	 C55	-50.510	-0.240	-22.316	C.2	1	RES1	0.000	
30	 C56	-50.623	-0.741	-23.625	C.2	1	RES1	0.000	
31	 C57	-49.223	-2.050	-25.252	C.3	1	RES1	0.000	
32	 C58	-48.578	-1.364	-22.893	C.2	1	RES1	0.000	
33	 C59	-47.283	-1.879	-22.790	C.2	1	RES1	0.000	
34	 C60	-46.609	-1.692	-21.577	C.2	1	RES1	0.000	
35	 C61	-47.227	-1.004	-20.529	C.2	1	RES1	0.000	
36	 C62	-48.488	-0.466	-20.675	C.2	1	RES1	0.000	
37	 C63	-49.202	-0.654	-21.875	C.2	1	RES1	0.000	
@<TRIPOS>BOND
1 1 3 1
2 2 9 1
3 2 10 1
4 2 11 1
5 3 4 1
6 4 7 ar
7 4 24 ar
8 5 12 1
9 5 13 1
10 5 14 1
11 7 9 ar
12 11 12 1
13 8 15 1
14 9 15 ar
15 15 23 ar
16 16 24 1
17 16 25 1
18 6 17 2
19 8 17 1
20 17 19 1
21 18 25 ar
22 18 26 ar
23 19 21 1
24 20 30 ar
25 20 31 1
26 20 32 ar
27 22 25 ar
28 22 28 ar
29 23 24 ar
30 26 27 ar
31 27 28 ar
32 28 29 1
33 29 30 ar
34 29 37 ar
35 32 33 ar
36 32 37 ar
37 33 34 ar
38 34 35 ar
39 35 36 ar
40 36 37 ar
@<TRIPOS>SUBSTRUCTURE
1	RES1	1	GROUP	1 ****	RES
