# created with PyMOL 2.5.2
@<TRIPOS>MOLECULE
BRD4_6YQN_TargetProtein
24 27 1                 
SMALL
USER_CHARGES
@<TRIPOS>ATOM
1	 CL1	25.735	17.905	-6.985	Cl	1	RES1	0.000	
2	  C1	26.038	15.084	1.294	C.3	1	RES1	0.000	
3	  N1	30.785	16.836	0.011	N.2	1	RES1	0.000	
4	  S1	28.501	16.326	1.353	S.2	1	RES1	0.000	
5	  C2	27.244	15.504	0.536	C.2	1	RES1	0.000	
6	  N2	32.693	17.777	0.547	N.2	1	RES1	0.000	
7	  C3	27.527	15.290	-0.805	C.2	1	RES1	0.000	
8	  N3	32.933	16.957	-0.529	N.2	1	RES1	0.000	
9	  C4	26.607	14.584	-1.739	C.3	1	RES1	0.000	
10	  C5	28.797	15.882	-1.187	C.2	1	RES1	0.000	
11	  C6	29.468	16.362	-0.068	C.2	1	RES1	0.000	
12	  C7	31.419	17.680	0.882	C.2	1	RES1	0.000	
13	  C8	30.802	18.477	1.947	C.3	1	RES1	0.000	
14	  N8	30.574	15.778	-2.876	N.2	1	RES1	0.000	
15	  C9	31.785	16.382	-0.829	C.2	1	RES1	0.000	
16	 C10	31.565	15.325	-1.863	C.3	1	RES1	0.000	
17	 C11	32.834	14.971	-2.604	C.3	1	RES1	0.000	
18	 C28	29.345	16.001	-2.556	C.2	1	RES1	0.000	
19	 C29	28.432	16.484	-3.652	C.2	1	RES1	0.000	
20	 C30	27.328	17.319	-3.370	C.2	1	RES1	0.000	
21	 C31	26.490	17.758	-4.428	C.2	1	RES1	0.000	
22	 C32	26.761	17.364	-5.720	C.2	1	RES1	0.000	
23	 C33	27.858	16.529	-6.007	C.2	1	RES1	0.000	
24	 C34	28.681	16.110	-4.965	C.2	1	RES1	0.000	
@<TRIPOS>BOND
1 1 22 1
2 2 5 1
3 3 11 1
4 3 12 ar
5 3 15 ar
6 4 5 ar
7 4 11 ar
8 5 7 ar
9 6 8 ar
10 6 12 ar
11 7 9 1
12 7 10 ar
13 8 15 ar
14 10 11 ar
15 12 13 1
16 14 16 1
17 15 16 1
18 16 17 1
19 10 18 1
20 14 18 2
21 18 19 1
22 19 20 ar
23 19 24 ar
24 20 21 ar
25 21 22 ar
26 22 23 ar
27 23 24 ar
@<TRIPOS>SUBSTRUCTURE
1	RES1	1	GROUP	1 ****	RES
