# created with PyMOL 2.5.2
@<TRIPOS>MOLECULE
EGFR_6JWL_TargetProtein
37 40 1                 
SMALL
USER_CHARGES
@<TRIPOS>ATOM
1	  C1	-51.832	3.688	-14.812	C.3	1	RES1	0.000	
2	  N1	-48.929	-0.536	-14.299	N.pl3	1	RES1	0.000	
3	  O1	-51.952	2.972	-16.054	O.3	1	RES1	0.000	
4	  C2	-51.302	1.705	-16.122	C.2	1	RES1	0.000	
5	  N2	-46.923	-2.856	-14.381	N.3	1	RES1	0.000	
6	  O2	-50.326	-2.904	-18.588	O.2	1	RES1	0.000	
7	  C3	-50.430	1.235	-15.145	C.2	1	RES1	0.000	
8	  N3	-49.474	-2.078	-16.579	N.pl3	1	RES1	0.000	
9	  C4	-49.827	-0.059	-15.283	C.2	1	RES1	0.000	
10	  C5	-49.381	-1.732	-13.576	C.3	1	RES1	0.000	
11	  C6	-47.465	-0.395	-14.525	C.3	1	RES1	0.000	
12	  C7	-46.676	-1.514	-13.813	C.3	1	RES1	0.000	
13	  C8	-46.969	-3.876	-13.321	C.3	1	RES1	0.000	
14	  C9	-45.888	-3.223	-15.374	C.3	1	RES1	0.000	
15	 C10	-50.087	-0.802	-16.471	C.2	1	RES1	0.000	
16	 N10	-52.472	1.515	-18.268	N.pl3	1	RES1	0.000	
17	 C11	-49.664	-3.011	-17.574	C.2	1	RES1	0.000	
18	 N11	-53.505	2.036	-20.359	N.2	1	RES1	0.000	
19	 C12	-48.871	-4.251	-17.284	C.3	1	RES1	0.000	
20	 N12	-49.292	-1.497	-23.554	N.2	1	RES1	0.000	
21	 C13	-49.403	-5.449	-17.440	C.3	1	RES1	0.000	
22	 N13	-51.538	0.694	-20.214	N.2	1	RES1	0.000	
23	 C49	-50.961	-0.292	-17.431	C.2	1	RES1	0.000	
24	 C50	-51.584	0.954	-17.291	C.2	1	RES1	0.000	
25	 C51	-52.529	1.449	-19.675	C.2	1	RES1	0.000	
26	 C52	-53.443	1.882	-21.707	C.2	1	RES1	0.000	
27	 C53	-52.478	1.141	-22.372	C.2	1	RES1	0.000	
28	 C54	-51.510	0.561	-21.553	C.2	1	RES1	0.000	
29	 C55	-50.422	-0.231	-22.121	C.2	1	RES1	0.000	
30	 C56	-50.467	-0.796	-23.384	C.2	1	RES1	0.000	
31	 C57	-48.950	-2.253	-24.776	C.3	1	RES1	0.000	
32	 C58	-48.492	-1.387	-22.443	C.2	1	RES1	0.000	
33	 C59	-47.225	-1.950	-22.174	C.2	1	RES1	0.000	
34	 C60	-46.647	-1.678	-20.939	C.2	1	RES1	0.000	
35	 C61	-47.288	-0.874	-20.002	C.2	1	RES1	0.000	
36	 C62	-48.567	-0.348	-20.270	C.2	1	RES1	0.000	
37	 C63	-49.183	-0.601	-21.529	C.2	1	RES1	0.000	
@<TRIPOS>BOND
1 1 3 1
2 2 9 1
3 2 10 1
4 2 11 1
5 3 4 1
6 4 7 ar
7 4 24 ar
8 5 12 1
9 5 13 1
10 5 14 1
11 7 9 ar
12 11 12 1
13 8 15 1
14 9 15 ar
15 15 23 ar
16 16 24 1
17 16 25 1
18 6 17 2
19 8 17 1
20 17 19 1
21 18 25 ar
22 18 26 ar
23 19 21 1
24 20 30 ar
25 20 31 1
26 20 32 ar
27 22 25 ar
28 22 28 ar
29 23 24 ar
30 26 27 ar
31 27 28 ar
32 28 29 1
33 29 30 ar
34 29 37 ar
35 32 33 ar
36 32 37 ar
37 33 34 ar
38 34 35 ar
39 35 36 ar
40 36 37 ar
@<TRIPOS>SUBSTRUCTURE
1	RES1	1	GROUP	1 ****	RES
