# created with PyMOL 2.5.2
@<TRIPOS>MOLECULE
EGFR_6JWL_TargetProtein
37 40 1                 
SMALL
USER_CHARGES
@<TRIPOS>ATOM
1	  C1	-51.862	3.502	-14.707	C.3	1	RES1	0.000	
2	  N1	-48.898	-0.647	-14.233	N.pl3	1	RES1	0.000	
3	  O1	-51.955	2.831	-15.965	O.3	1	RES1	0.000	
4	  C2	-51.293	1.595	-16.114	C.2	1	RES1	0.000	
5	  N2	-46.497	-2.745	-14.358	N.3	1	RES1	0.000	
6	  O2	-50.368	-2.920	-18.603	O.2	1	RES1	0.000	
7	  C3	-50.418	1.069	-15.098	C.2	1	RES1	0.000	
8	  N3	-49.443	-2.169	-16.578	N.pl3	1	RES1	0.000	
9	  C4	-49.780	-0.153	-15.249	C.2	1	RES1	0.000	
10	  C5	-49.422	-0.872	-12.896	C.3	1	RES1	0.000	
11	  C6	-47.471	-0.329	-14.396	C.3	1	RES1	0.000	
12	  C7	-46.553	-1.389	-13.744	C.3	1	RES1	0.000	
13	  C8	-47.627	-2.993	-15.275	C.3	1	RES1	0.000	
14	  C9	-46.393	-3.828	-13.359	C.3	1	RES1	0.000	
15	  N9	-52.382	1.465	-18.242	N.pl3	1	RES1	0.000	
16	 C10	-50.011	-0.891	-16.452	C.2	1	RES1	0.000	
17	 N10	-53.436	2.031	-20.351	N.2	1	RES1	0.000	
18	 C11	-49.677	-3.071	-17.594	C.2	1	RES1	0.000	
19	 N11	-49.307	-1.449	-23.659	N.2	1	RES1	0.000	
20	 C12	-48.939	-4.360	-17.442	C.3	1	RES1	0.000	
21	 N12	-51.462	0.702	-20.236	N.2	1	RES1	0.000	
22	 C13	-49.441	-5.590	-17.625	C.3	1	RES1	0.000	
23	 C46	-50.877	-0.343	-17.453	C.2	1	RES1	0.000	
24	 C47	-51.503	0.899	-17.275	C.2	1	RES1	0.000	
25	 C48	-52.458	1.405	-19.632	C.2	1	RES1	0.000	
26	 C49	-53.403	1.911	-21.689	C.2	1	RES1	0.000	
27	 C50	-52.460	1.210	-22.361	C.2	1	RES1	0.000	
28	 C51	-51.484	0.574	-21.578	C.2	1	RES1	0.000	
29	 C52	-50.385	-0.223	-22.172	C.2	1	RES1	0.000	
30	 C53	-50.451	-0.753	-23.443	C.2	1	RES1	0.000	
31	 C54	-48.982	-2.164	-24.909	C.3	1	RES1	0.000	
32	 C55	-48.470	-1.391	-22.556	C.2	1	RES1	0.000	
33	 C56	-47.217	-1.960	-22.299	C.2	1	RES1	0.000	
34	 C57	-46.655	-1.723	-21.086	C.2	1	RES1	0.000	
35	 C58	-47.263	-0.965	-20.109	C.2	1	RES1	0.000	
36	 C59	-48.522	-0.404	-20.360	C.2	1	RES1	0.000	
37	 C60	-49.149	-0.628	-21.598	C.2	1	RES1	0.000	
@<TRIPOS>BOND
1 1 3 1
2 2 9 1
3 2 10 1
4 2 11 1
5 3 4 1
6 4 7 ar
7 4 24 ar
8 5 12 1
9 5 13 1
10 5 14 1
11 7 9 ar
12 11 12 1
13 8 16 1
14 9 16 ar
15 16 23 ar
16 17 25 ar
17 17 26 ar
18 6 18 2
19 8 18 1
20 18 20 1
21 19 30 ar
22 19 31 1
23 19 32 ar
24 20 22 1
25 21 25 ar
26 21 28 ar
27 23 24 ar
28 15 24 1
29 15 25 1
30 26 27 ar
31 27 28 ar
32 28 29 1
33 29 30 ar
34 29 37 ar
35 32 33 ar
36 32 37 ar
37 33 34 ar
38 34 35 ar
39 35 36 ar
40 36 37 ar
@<TRIPOS>SUBSTRUCTURE
1	RES1	1	GROUP	1 ****	RES
