# created with PyMOL 2.5.2
@<TRIPOS>MOLECULE
EGFR_6JWL_TargetProtein
37 40 1                 
SMALL
USER_CHARGES
@<TRIPOS>ATOM
1	  C1	-51.918	3.701	-14.800	C.3	1	RES1	0.000	
2	  N1	-49.012	-0.507	-14.131	N.pl3	1	RES1	0.000	
3	  O1	-52.015	2.949	-16.026	O.3	1	RES1	0.000	
4	  C2	-51.366	1.697	-16.056	C.2	1	RES1	0.000	
5	  N2	-46.883	-2.824	-14.329	N.3	1	RES1	0.000	
6	  O2	-50.457	-3.042	-18.298	O.2	1	RES1	0.000	
7	  C3	-50.529	1.208	-15.048	C.2	1	RES1	0.000	
8	  N3	-49.537	-2.104	-16.371	N.pl3	1	RES1	0.000	
9	  C4	-49.915	-0.040	-15.140	C.2	1	RES1	0.000	
10	  C5	-49.413	-1.723	-13.467	C.3	1	RES1	0.000	
11	  C6	-47.565	-0.328	-14.410	C.3	1	RES1	0.000	
12	  C7	-46.703	-1.463	-13.769	C.3	1	RES1	0.000	
13	  C8	-46.980	-3.855	-13.286	C.3	1	RES1	0.000	
14	  C9	-45.895	-3.179	-15.357	C.3	1	RES1	0.000	
15	  N9	-52.396	1.476	-18.258	N.pl3	1	RES1	0.000	
16	 C10	-50.182	-0.824	-16.290	C.2	1	RES1	0.000	
17	 N10	-53.372	2.041	-20.297	N.2	1	RES1	0.000	
18	 C11	-49.687	-3.067	-17.324	C.2	1	RES1	0.000	
19	 N11	-49.333	-1.400	-23.798	N.2	1	RES1	0.000	
20	 C12	-48.805	-4.269	-17.094	C.3	1	RES1	0.000	
21	 N12	-51.414	0.657	-20.298	N.2	1	RES1	0.000	
22	 C13	-49.256	-5.498	-17.232	C.3	1	RES1	0.000	
23	 C46	-50.974	-0.310	-17.286	C.2	1	RES1	0.000	
24	 C47	-51.595	0.936	-17.201	C.2	1	RES1	0.000	
25	 C48	-52.374	1.364	-19.653	C.2	1	RES1	0.000	
26	 C49	-53.379	1.932	-21.642	C.2	1	RES1	0.000	
27	 C50	-52.431	1.266	-22.386	C.2	1	RES1	0.000	
28	 C51	-51.456	0.621	-21.641	C.2	1	RES1	0.000	
29	 C52	-50.389	-0.196	-22.271	C.2	1	RES1	0.000	
30	 C53	-50.498	-0.696	-23.561	C.2	1	RES1	0.000	
31	 C54	-49.043	-2.117	-25.053	C.3	1	RES1	0.000	
32	 C55	-48.504	-1.379	-22.698	C.2	1	RES1	0.000	
33	 C56	-47.234	-1.974	-22.496	C.2	1	RES1	0.000	
34	 C57	-46.621	-1.766	-21.269	C.2	1	RES1	0.000	
35	 C58	-47.218	-1.005	-20.274	C.2	1	RES1	0.000	
36	 C59	-48.458	-0.429	-20.477	C.2	1	RES1	0.000	
37	 C60	-49.133	-0.619	-21.713	C.2	1	RES1	0.000	
@<TRIPOS>BOND
1 1 3 1
2 2 9 1
3 2 10 1
4 2 11 1
5 3 4 1
6 4 7 ar
7 4 24 ar
8 5 12 1
9 5 13 1
10 5 14 1
11 7 9 ar
12 11 12 1
13 8 16 1
14 9 16 ar
15 16 23 ar
16 17 25 ar
17 17 26 ar
18 6 18 2
19 8 18 1
20 18 20 1
21 19 30 ar
22 19 31 1
23 19 32 ar
24 20 22 1
25 21 25 ar
26 21 28 ar
27 23 24 ar
28 15 24 1
29 15 25 1
30 26 27 ar
31 27 28 ar
32 28 29 1
33 29 30 ar
34 29 37 ar
35 32 33 ar
36 32 37 ar
37 33 34 ar
38 34 35 ar
39 35 36 ar
40 36 37 ar
@<TRIPOS>SUBSTRUCTURE
1	RES1	1	GROUP	1 ****	RES
