# created with PyMOL 2.5.2
@<TRIPOS>MOLECULE
EGFR_6JWL_TargetProtein
37 40 1                 
SMALL
USER_CHARGES
@<TRIPOS>ATOM
1	  C1	-51.739	3.676	-14.829	C.3	1	RES1	0.000	
2	  N1	-48.960	-0.585	-14.144	N.pl3	1	RES1	0.000	
3	  O1	-51.830	2.948	-16.072	O.3	1	RES1	0.000	
4	  C2	-51.208	1.678	-16.106	C.2	1	RES1	0.000	
5	  N2	-46.708	-2.774	-14.272	N.3	1	RES1	0.000	
6	  O2	-50.321	-3.025	-18.402	O.2	1	RES1	0.000	
7	  C3	-50.375	1.180	-15.108	C.2	1	RES1	0.000	
8	  N3	-49.346	-2.087	-16.493	N.pl3	1	RES1	0.000	
9	  C4	-49.793	-0.068	-15.199	C.2	1	RES1	0.000	
10	  C5	-49.455	-1.783	-13.411	C.3	1	RES1	0.000	
11	  C6	-47.514	-0.364	-14.234	C.3	1	RES1	0.000	
12	  C7	-46.677	-1.491	-13.579	C.3	1	RES1	0.000	
13	  C8	-47.855	-2.847	-15.182	C.3	1	RES1	0.000	
14	  C9	-46.716	-3.916	-13.351	C.3	1	RES1	0.000	
15	  N9	-52.326	1.472	-18.252	N.pl3	1	RES1	0.000	
16	 C10	-50.033	-0.819	-16.373	C.2	1	RES1	0.000	
17	 N10	-53.443	1.991	-20.301	N.2	1	RES1	0.000	
18	 C11	-49.518	-3.045	-17.482	C.2	1	RES1	0.000	
19	 N11	-49.342	-1.461	-23.732	N.2	1	RES1	0.000	
20	 C12	-48.599	-4.193	-17.282	C.3	1	RES1	0.000	
21	 N12	-51.475	0.696	-20.252	N.2	1	RES1	0.000	
22	 C13	-49.028	-5.441	-17.411	C.3	1	RES1	0.000	
23	 C48	-50.855	-0.326	-17.365	C.2	1	RES1	0.000	
24	 C49	-51.445	0.951	-17.264	C.2	1	RES1	0.000	
25	 C50	-52.420	1.397	-19.636	C.2	1	RES1	0.000	
26	 C51	-53.464	1.878	-21.648	C.2	1	RES1	0.000	
27	 C52	-52.539	1.172	-22.351	C.2	1	RES1	0.000	
28	 C53	-51.519	0.562	-21.615	C.2	1	RES1	0.000	
29	 C54	-50.466	-0.229	-22.206	C.2	1	RES1	0.000	
30	 C55	-50.528	-0.768	-23.502	C.2	1	RES1	0.000	
31	 C56	-49.081	-2.161	-24.988	C.3	1	RES1	0.000	
32	 C57	-48.510	-1.380	-22.657	C.2	1	RES1	0.000	
33	 C58	-47.254	-1.925	-22.449	C.2	1	RES1	0.000	
34	 C59	-46.630	-1.687	-21.218	C.2	1	RES1	0.000	
35	 C60	-47.252	-0.951	-20.222	C.2	1	RES1	0.000	
36	 C61	-48.527	-0.406	-20.442	C.2	1	RES1	0.000	
37	 C62	-49.190	-0.635	-21.672	C.2	1	RES1	0.000	
@<TRIPOS>BOND
1 1 3 1
2 2 9 1
3 2 10 1
4 2 11 1
5 3 4 1
6 4 7 ar
7 4 24 ar
8 5 12 1
9 5 13 1
10 5 14 1
11 7 9 ar
12 11 12 1
13 8 16 1
14 9 16 ar
15 16 23 ar
16 17 25 ar
17 17 26 ar
18 6 18 2
19 8 18 1
20 18 20 1
21 19 30 ar
22 19 31 1
23 19 32 ar
24 20 22 1
25 21 25 ar
26 21 28 ar
27 23 24 ar
28 15 24 1
29 15 25 1
30 26 27 ar
31 27 28 ar
32 28 29 1
33 29 30 ar
34 29 37 ar
35 32 33 ar
36 32 37 ar
37 33 34 ar
38 34 35 ar
39 35 36 ar
40 36 37 ar
@<TRIPOS>SUBSTRUCTURE
1	RES1	1	GROUP	1 ****	RES
