# created with PyMOL 2.5.2
@<TRIPOS>MOLECULE
EGFR_6JWL_TargetProtein
37 40 1                 
SMALL
USER_CHARGES
@<TRIPOS>ATOM
1	  C1	-51.803	3.701	-14.825	C.3	1	RES1	0.000	
2	  N1	-49.032	-0.535	-14.050	N.pl3	1	RES1	0.000	
3	  O1	-51.917	2.925	-16.086	O.3	1	RES1	0.000	
4	  C2	-51.308	1.698	-16.085	C.2	1	RES1	0.000	
5	  N2	-46.878	-2.797	-14.118	N.3	1	RES1	0.000	
6	  O2	-50.564	-2.997	-18.291	O.2	1	RES1	0.000	
7	  C3	-50.440	1.200	-15.067	C.2	1	RES1	0.000	
8	  N3	-49.464	-2.081	-16.421	N.pl3	1	RES1	0.000	
9	  C4	-49.863	-0.078	-15.145	C.2	1	RES1	0.000	
10	  C5	-49.530	-1.557	-13.170	C.3	1	RES1	0.000	
11	  C6	-47.572	-0.335	-14.196	C.3	1	RES1	0.000	
12	  C7	-46.771	-1.476	-13.517	C.3	1	RES1	0.000	
13	  C8	-46.969	-3.880	-13.106	C.3	1	RES1	0.000	
14	  C9	-45.827	-3.110	-15.103	C.3	1	RES1	0.000	
15	  N9	-52.373	1.458	-18.250	N.pl3	1	RES1	0.000	
16	 C10	-50.140	-0.853	-16.268	C.2	1	RES1	0.000	
17	 N10	-53.400	1.989	-20.284	N.2	1	RES1	0.000	
18	 C11	-49.681	-3.024	-17.438	C.2	1	RES1	0.000	
19	 N11	-49.386	-1.403	-23.841	N.2	1	RES1	0.000	
20	 C12	-48.802	-4.234	-17.363	C.3	1	RES1	0.000	
21	 N12	-51.430	0.651	-20.315	N.2	1	RES1	0.000	
22	 C13	-49.221	-5.499	-17.530	C.3	1	RES1	0.000	
23	 C48	-50.975	-0.360	-17.292	C.2	1	RES1	0.000	
24	 C49	-51.564	0.923	-17.211	C.2	1	RES1	0.000	
25	 C50	-52.364	1.351	-19.646	C.2	1	RES1	0.000	
26	 C51	-53.398	1.891	-21.618	C.2	1	RES1	0.000	
27	 C52	-52.474	1.221	-22.387	C.2	1	RES1	0.000	
28	 C53	-51.465	0.599	-21.650	C.2	1	RES1	0.000	
29	 C54	-50.428	-0.191	-22.303	C.2	1	RES1	0.000	
30	 C55	-50.507	-0.694	-23.578	C.2	1	RES1	0.000	
31	 C56	-49.106	-2.105	-25.122	C.3	1	RES1	0.000	
32	 C57	-48.505	-1.370	-22.767	C.2	1	RES1	0.000	
33	 C58	-47.270	-1.957	-22.585	C.2	1	RES1	0.000	
34	 C59	-46.623	-1.770	-21.373	C.2	1	RES1	0.000	
35	 C60	-47.252	-1.003	-20.354	C.2	1	RES1	0.000	
36	 C61	-48.485	-0.448	-20.559	C.2	1	RES1	0.000	
37	 C62	-49.152	-0.613	-21.788	C.2	1	RES1	0.000	
@<TRIPOS>BOND
1 1 3 1
2 2 9 1
3 2 10 1
4 2 11 1
5 3 4 1
6 4 7 ar
7 4 24 ar
8 5 12 1
9 5 13 1
10 5 14 1
11 7 9 ar
12 11 12 1
13 8 16 1
14 9 16 ar
15 16 23 ar
16 17 25 ar
17 17 26 ar
18 6 18 2
19 8 18 1
20 18 20 1
21 19 30 ar
22 19 31 1
23 19 32 ar
24 20 22 1
25 21 25 ar
26 21 28 ar
27 23 24 ar
28 15 24 1
29 15 25 1
30 26 27 ar
31 27 28 ar
32 28 29 1
33 29 30 ar
34 29 37 ar
35 32 33 ar
36 32 37 ar
37 33 34 ar
38 34 35 ar
39 35 36 ar
40 36 37 ar
@<TRIPOS>SUBSTRUCTURE
1	RES1	1	GROUP	1 ****	RES
