# created with PyMOL 2.5.2
@<TRIPOS>MOLECULE
EGFR_6JWL_TargetProtein
37 40 1                 
SMALL
USER_CHARGES
@<TRIPOS>ATOM
1	  C1	-49.292	-5.448	-17.563	C.3	1	RES1	0.000	
2	  N1	-49.471	-2.061	-16.588	N.pl3	1	RES1	0.000	
3	  O1	-50.558	-2.926	-18.465	O.2	1	RES1	0.000	
4	  C2	-48.823	-4.186	-17.437	C.3	1	RES1	0.000	
5	  N2	-52.452	1.515	-18.260	N.pl3	1	RES1	0.000	
6	  O2	-51.905	2.970	-16.069	O.3	1	RES1	0.000	
7	  C3	-49.716	-2.997	-17.586	C.2	1	RES1	0.000	
8	  N3	-53.484	2.007	-20.363	N.2	1	RES1	0.000	
9	  C4	-50.126	-0.813	-16.411	C.2	1	RES1	0.000	
10	  N4	-49.287	-1.513	-23.556	N.2	1	RES1	0.000	
11	  C5	-50.996	-0.300	-17.397	C.2	1	RES1	0.000	
12	  N5	-51.527	0.698	-20.226	N.2	1	RES1	0.000	
13	  C6	-51.570	0.957	-17.291	C.2	1	RES1	0.000	
14	  N6	-48.956	-0.549	-14.240	N.pl3	1	RES1	0.000	
15	  C7	-52.515	1.435	-19.657	C.2	1	RES1	0.000	
16	  C8	-53.450	1.868	-21.708	C.2	1	RES1	0.000	
17	  C9	-52.474	1.144	-22.364	C.2	1	RES1	0.000	
18	 C10	-51.514	0.557	-21.565	C.2	1	RES1	0.000	
19	 C11	-50.418	-0.254	-22.115	C.2	1	RES1	0.000	
20	 N11	-46.915	-2.838	-14.383	N.3	1	RES1	0.000	
21	 C12	-50.452	-0.817	-23.385	C.2	1	RES1	0.000	
22	 C13	-48.944	-2.238	-24.763	C.3	1	RES1	0.000	
23	 C14	-48.489	-1.414	-22.446	C.2	1	RES1	0.000	
24	 C15	-47.212	-1.942	-22.192	C.2	1	RES1	0.000	
25	 C16	-46.643	-1.679	-20.945	C.2	1	RES1	0.000	
26	 C17	-47.304	-0.889	-19.994	C.2	1	RES1	0.000	
27	 C18	-48.533	-0.347	-20.276	C.2	1	RES1	0.000	
28	 C19	-49.166	-0.608	-21.520	C.2	1	RES1	0.000	
29	 C20	-51.268	1.704	-16.143	C.2	1	RES1	0.000	
30	 C21	-51.796	3.679	-14.817	C.3	1	RES1	0.000	
31	 C22	-50.414	1.221	-15.160	C.2	1	RES1	0.000	
32	 C23	-49.823	-0.041	-15.288	C.2	1	RES1	0.000	
33	 C24	-49.384	-1.723	-13.496	C.3	1	RES1	0.000	
34	 C53	-47.492	-0.371	-14.505	C.3	1	RES1	0.000	
35	 C54	-46.671	-1.490	-13.806	C.3	1	RES1	0.000	
36	 C55	-46.967	-3.852	-13.299	C.3	1	RES1	0.000	
37	 C56	-45.899	-3.220	-15.408	C.3	1	RES1	0.000	
@<TRIPOS>BOND
1 1 4 1
2 2 7 1
3 2 9 1
4 3 7 2
5 4 7 1
6 5 13 1
7 5 15 1
8 6 29 1
9 6 30 1
10 8 15 ar
11 8 16 ar
12 9 11 ar
13 11 13 ar
14 12 15 ar
15 16 17 ar
16 12 18 ar
17 17 18 ar
18 18 19 1
19 19 21 ar
20 19 28 ar
21 20 35 1
22 20 36 1
23 20 37 1
24 10 21 ar
25 10 22 1
26 10 23 ar
27 23 24 ar
28 23 28 ar
29 24 25 ar
30 25 26 ar
31 26 27 ar
32 27 28 ar
33 13 29 ar
34 29 31 ar
35 31 32 ar
36 9 32 ar
37 14 32 1
38 14 33 1
39 14 34 1
40 34 35 1
@<TRIPOS>SUBSTRUCTURE
1	RES1	1	GROUP	1 ****	RES
