# created with PyMOL 2.5.2
@<TRIPOS>MOLECULE
EGFR_6JWL_TargetProtein
37 40 1                 
SMALL
USER_CHARGES
@<TRIPOS>ATOM
1	  C1	-49.273	-5.545	-17.435	C.3	1	RES1	0.000	
2	  N1	-49.498	-2.128	-16.510	N.pl3	1	RES1	0.000	
3	  O1	-50.345	-3.030	-18.527	O.2	1	RES1	0.000	
4	  C2	-48.787	-4.326	-17.254	C.3	1	RES1	0.000	
5	  N2	-52.371	1.488	-18.282	N.pl3	1	RES1	0.000	
6	  O2	-51.897	2.925	-16.035	O.3	1	RES1	0.000	
7	  C3	-49.627	-3.095	-17.536	C.2	1	RES1	0.000	
8	  N3	-53.431	2.028	-20.338	N.2	1	RES1	0.000	
9	  C4	-50.100	-0.881	-16.419	C.2	1	RES1	0.000	
10	  N4	-49.372	-1.425	-23.727	N.2	1	RES1	0.000	
11	  C5	-50.931	-0.356	-17.405	C.2	1	RES1	0.000	
12	  N5	-51.485	0.716	-20.264	N.2	1	RES1	0.000	
13	  C6	-51.533	0.933	-17.282	C.2	1	RES1	0.000	
14	  N6	-49.067	-0.687	-14.187	N.pl3	1	RES1	0.000	
15	  C7	-52.445	1.429	-19.659	C.2	1	RES1	0.000	
16	  C8	-53.444	1.937	-21.679	C.2	1	RES1	0.000	
17	  C9	-52.480	1.218	-22.389	C.2	1	RES1	0.000	
18	 C10	-51.506	0.598	-21.604	C.2	1	RES1	0.000	
19	 C11	-50.439	-0.184	-22.207	C.2	1	RES1	0.000	
20	 N11	-46.825	-2.872	-14.291	N.3	1	RES1	0.000	
21	 C12	-50.510	-0.711	-23.463	C.2	1	RES1	0.000	
22	 C13	-49.076	-2.084	-24.987	C.3	1	RES1	0.000	
23	 C14	-48.523	-1.377	-22.636	C.2	1	RES1	0.000	
24	 C15	-47.265	-1.963	-22.452	C.2	1	RES1	0.000	
25	 C16	-46.642	-1.755	-21.221	C.2	1	RES1	0.000	
26	 C17	-47.245	-0.984	-20.252	C.2	1	RES1	0.000	
27	 C18	-48.492	-0.427	-20.440	C.2	1	RES1	0.000	
28	 C19	-49.154	-0.637	-21.641	C.2	1	RES1	0.000	
29	 C20	-51.273	1.664	-16.094	C.2	1	RES1	0.000	
30	 C21	-51.801	3.619	-14.759	C.3	1	RES1	0.000	
31	 C22	-50.470	1.121	-15.108	C.2	1	RES1	0.000	
32	 C23	-49.890	-0.161	-15.237	C.2	1	RES1	0.000	
33	 C24	-49.719	-0.732	-12.911	C.3	1	RES1	0.000	
34	 C53	-47.620	-0.426	-14.248	C.3	1	RES1	0.000	
35	 C54	-46.776	-1.559	-13.643	C.3	1	RES1	0.000	
36	 C55	-46.893	-4.012	-13.332	C.3	1	RES1	0.000	
37	 C56	-45.734	-3.083	-15.244	C.3	1	RES1	0.000	
@<TRIPOS>BOND
1 1 4 1
2 2 7 1
3 2 9 1
4 3 7 2
5 4 7 1
6 5 13 1
7 5 15 1
8 6 29 1
9 6 30 1
10 8 15 ar
11 8 16 ar
12 9 11 ar
13 11 13 ar
14 12 15 ar
15 16 17 ar
16 12 18 ar
17 17 18 ar
18 18 19 1
19 19 21 ar
20 19 28 ar
21 20 35 1
22 20 36 1
23 20 37 1
24 10 21 ar
25 10 22 1
26 10 23 ar
27 23 24 ar
28 23 28 ar
29 24 25 ar
30 25 26 ar
31 26 27 ar
32 27 28 ar
33 13 29 ar
34 29 31 ar
35 31 32 ar
36 9 32 ar
37 14 32 1
38 14 33 1
39 14 34 1
40 34 35 1
@<TRIPOS>SUBSTRUCTURE
1	RES1	1	GROUP	1 ****	RES
