# created with PyMOL 2.5.2
@<TRIPOS>MOLECULE
EGFR_6JWL_TargetProtein
37 40 1                 
SMALL
USER_CHARGES
@<TRIPOS>ATOM
1	  C1	-49.476	-5.555	-17.329	C.3	1	RES1	0.000	
2	  N1	-49.498	-2.169	-16.336	N.pl3	1	RES1	0.000	
3	  O1	-50.217	-2.935	-18.431	O.2	1	RES1	0.000	
4	  C2	-48.908	-4.364	-17.085	C.3	1	RES1	0.000	
5	  N2	-52.305	1.407	-18.252	N.pl3	1	RES1	0.000	
6	  O2	-51.973	2.867	-16.015	O.3	1	RES1	0.000	
7	  C3	-49.635	-3.095	-17.360	C.2	1	RES1	0.000	
8	  N3	-53.298	1.996	-20.261	N.2	1	RES1	0.000	
9	  C4	-50.054	-0.881	-16.262	C.2	1	RES1	0.000	
10	  N4	-49.443	-1.322	-23.988	N.2	1	RES1	0.000	
11	  C5	-50.848	-0.369	-17.312	C.2	1	RES1	0.000	
12	  N5	-51.385	0.619	-20.302	N.2	1	RES1	0.000	
13	  C6	-51.509	0.873	-17.231	C.2	1	RES1	0.000	
14	  N6	-49.075	-0.618	-14.011	N.pl3	1	RES1	0.000	
15	  C7	-52.302	1.312	-19.636	C.2	1	RES1	0.000	
16	  C8	-53.344	1.931	-21.618	C.2	1	RES1	0.000	
17	  C9	-52.449	1.228	-22.355	C.2	1	RES1	0.000	
18	 C10	-51.463	0.565	-21.655	C.2	1	RES1	0.000	
19	 C11	-50.413	-0.217	-22.341	C.2	1	RES1	0.000	
20	 C12	-50.557	-0.622	-23.642	C.2	1	RES1	0.000	
21	 N12	-46.927	-2.793	-14.132	N.3	1	RES1	0.000	
22	 C13	-49.177	-1.920	-25.305	C.3	1	RES1	0.000	
23	 C14	-48.530	-1.343	-22.907	C.2	1	RES1	0.000	
24	 C15	-47.268	-1.927	-22.815	C.2	1	RES1	0.000	
25	 C16	-46.618	-1.781	-21.606	C.2	1	RES1	0.000	
26	 C17	-47.170	-1.086	-20.566	C.2	1	RES1	0.000	
27	 C18	-48.423	-0.512	-20.672	C.2	1	RES1	0.000	
28	 C19	-49.129	-0.654	-21.864	C.2	1	RES1	0.000	
29	 C20	-51.318	1.599	-16.032	C.2	1	RES1	0.000	
30	 C21	-51.912	3.580	-14.771	C.3	1	RES1	0.000	
31	 C22	-50.529	1.103	-14.981	C.2	1	RES1	0.000	
32	 C23	-49.887	-0.122	-15.092	C.2	1	RES1	0.000	
33	 C24	-49.710	-0.808	-12.670	C.3	1	RES1	0.000	
34	 C59	-47.626	-0.369	-14.063	C.3	1	RES1	0.000	
35	 C60	-46.808	-1.515	-13.422	C.3	1	RES1	0.000	
36	 C61	-45.845	-2.911	-15.140	C.3	1	RES1	0.000	
37	 C62	-46.909	-3.953	-13.239	C.3	1	RES1	0.000	
@<TRIPOS>BOND
1 1 4 1
2 2 7 1
3 2 9 1
4 3 7 2
5 4 7 1
6 5 13 1
7 5 15 1
8 6 29 1
9 6 30 1
10 8 15 ar
11 8 16 ar
12 9 11 ar
13 11 13 ar
14 12 15 ar
15 16 17 ar
16 12 18 ar
17 17 18 ar
18 18 19 1
19 19 20 ar
20 19 28 ar
21 10 20 ar
22 21 35 1
23 21 36 1
24 21 37 1
25 10 22 1
26 10 23 ar
27 23 24 ar
28 23 28 ar
29 24 25 ar
30 25 26 ar
31 26 27 ar
32 27 28 ar
33 13 29 ar
34 29 31 ar
35 31 32 ar
36 9 32 ar
37 14 32 1
38 14 33 1
39 14 34 1
40 34 35 1
@<TRIPOS>SUBSTRUCTURE
1	RES1	1	GROUP	1 ****	RES
