# created with PyMOL 2.5.2
@<TRIPOS>MOLECULE
EGFR_6JWL_TargetProtein
37 40 1                 
SMALL
USER_CHARGES
@<TRIPOS>ATOM
1	  C1	-49.195	-5.457	-17.246	C.3	1	RES1	0.000	
2	  N1	-49.371	-2.057	-16.397	N.pl3	1	RES1	0.000	
3	  O1	-50.130	-2.923	-18.437	O.2	1	RES1	0.000	
4	  C2	-48.698	-4.227	-17.078	C.3	1	RES1	0.000	
5	  N2	-52.332	1.467	-18.244	N.pl3	1	RES1	0.000	
6	  O2	-51.834	3.011	-16.096	O.3	1	RES1	0.000	
7	  C3	-49.500	-3.024	-17.408	C.2	1	RES1	0.000	
8	  N3	-53.390	1.993	-20.260	N.2	1	RES1	0.000	
9	  C4	-50.066	-0.819	-16.307	C.2	1	RES1	0.000	
10	  N4	-49.434	-1.394	-23.917	N.2	1	RES1	0.000	
11	  C5	-50.843	-0.301	-17.324	C.2	1	RES1	0.000	
12	  N5	-51.463	0.623	-20.304	N.2	1	RES1	0.000	
13	  C6	-51.468	0.958	-17.237	C.2	1	RES1	0.000	
14	  N6	-49.131	-0.567	-14.006	N.pl3	1	RES1	0.000	
15	  C7	-52.352	1.351	-19.636	C.2	1	RES1	0.000	
16	  C8	-53.446	1.903	-21.581	C.2	1	RES1	0.000	
17	  C9	-52.523	1.171	-22.369	C.2	1	RES1	0.000	
18	 C10	-51.502	0.546	-21.655	C.2	1	RES1	0.000	
19	 C11	-50.490	-0.250	-22.311	C.2	1	RES1	0.000	
20	 C12	-50.619	-0.734	-23.598	C.2	1	RES1	0.000	
21	 N12	-46.995	-2.848	-14.052	N.3	1	RES1	0.000	
22	 C13	-49.183	-1.997	-25.209	C.3	1	RES1	0.000	
23	 C14	-48.566	-1.353	-22.862	C.2	1	RES1	0.000	
24	 C15	-47.280	-1.897	-22.735	C.2	1	RES1	0.000	
25	 C16	-46.591	-1.694	-21.515	C.2	1	RES1	0.000	
26	 C17	-47.227	-1.002	-20.481	C.2	1	RES1	0.000	
27	 C18	-48.511	-0.499	-20.615	C.2	1	RES1	0.000	
28	 C19	-49.186	-0.672	-21.815	C.2	1	RES1	0.000	
29	 C20	-51.212	1.734	-16.108	C.2	1	RES1	0.000	
30	 C21	-51.806	3.718	-14.840	C.3	1	RES1	0.000	
31	 C22	-50.442	1.225	-15.062	C.2	1	RES1	0.000	
32	 C23	-49.859	-0.046	-15.126	C.2	1	RES1	0.000	
33	 C24	-49.708	-1.723	-13.281	C.3	1	RES1	0.000	
34	 C59	-47.658	-0.392	-14.015	C.3	1	RES1	0.000	
35	 C60	-46.921	-1.560	-13.342	C.3	1	RES1	0.000	
36	 C61	-45.985	-3.011	-15.096	C.3	1	RES1	0.000	
37	 C62	-47.022	-4.019	-13.136	C.3	1	RES1	0.000	
@<TRIPOS>BOND
1 1 4 1
2 2 7 1
3 2 9 1
4 3 7 2
5 4 7 1
6 5 13 1
7 5 15 1
8 6 29 1
9 6 30 1
10 8 15 ar
11 8 16 ar
12 9 11 ar
13 11 13 ar
14 12 15 ar
15 16 17 ar
16 12 18 ar
17 17 18 ar
18 18 19 1
19 19 20 ar
20 19 28 ar
21 10 20 ar
22 21 35 1
23 21 36 1
24 21 37 1
25 10 22 1
26 10 23 ar
27 23 24 ar
28 23 28 ar
29 24 25 ar
30 25 26 ar
31 26 27 ar
32 27 28 ar
33 13 29 ar
34 29 31 ar
35 31 32 ar
36 9 32 ar
37 14 32 1
38 14 33 1
39 14 34 1
40 34 35 1
@<TRIPOS>SUBSTRUCTURE
1	RES1	1	GROUP	1 ****	RES
