# created with PyMOL 2.5.2
@<TRIPOS>MOLECULE
EGFR_6JWL_TargetProtein
37 40 1                 
SMALL
USER_CHARGES
@<TRIPOS>ATOM
1	  C1	-49.465	-5.548	-17.533	C.3	1	RES1	0.000	
2	  N1	-49.469	-2.176	-16.575	N.pl3	1	RES1	0.000	
3	  O1	-50.375	-2.957	-18.578	O.2	1	RES1	0.000	
4	  C2	-48.902	-4.353	-17.341	C.3	1	RES1	0.000	
5	  N2	-52.398	1.447	-18.225	N.pl3	1	RES1	0.000	
6	  O2	-51.924	2.840	-16.000	O.3	1	RES1	0.000	
7	  C3	-49.659	-3.104	-17.601	C.2	1	RES1	0.000	
8	  N3	-53.429	2.014	-20.322	N.2	1	RES1	0.000	
9	  C4	-50.042	-0.873	-16.451	C.2	1	RES1	0.000	
10	  N4	-49.260	-1.444	-23.658	N.2	1	RES1	0.000	
11	  C5	-50.915	-0.366	-17.417	C.2	1	RES1	0.000	
12	  N5	-51.474	0.683	-20.238	N.2	1	RES1	0.000	
13	  C6	-51.519	0.888	-17.275	C.2	1	RES1	0.000	
14	  N6	-48.900	-0.671	-14.256	N.pl3	1	RES1	0.000	
15	  C7	-52.478	1.386	-19.634	C.2	1	RES1	0.000	
16	  C8	-53.418	1.905	-21.686	C.2	1	RES1	0.000	
17	  C9	-52.447	1.194	-22.373	C.2	1	RES1	0.000	
18	 C10	-51.491	0.570	-21.574	C.2	1	RES1	0.000	
19	 C11	-50.392	-0.195	-22.172	C.2	1	RES1	0.000	
20	 C12	-50.423	-0.712	-23.427	C.2	1	RES1	0.000	
21	 N12	-46.475	-2.717	-14.456	N.3	1	RES1	0.000	
22	 C13	-48.926	-2.116	-24.922	C.3	1	RES1	0.000	
23	 C14	-48.476	-1.399	-22.563	C.2	1	RES1	0.000	
24	 C15	-47.217	-1.950	-22.312	C.2	1	RES1	0.000	
25	 C16	-46.645	-1.736	-21.059	C.2	1	RES1	0.000	
26	 C17	-47.274	-0.977	-20.089	C.2	1	RES1	0.000	
27	 C18	-48.522	-0.442	-20.339	C.2	1	RES1	0.000	
28	 C19	-49.159	-0.628	-21.569	C.2	1	RES1	0.000	
29	 C20	-51.298	1.605	-16.087	C.2	1	RES1	0.000	
30	 C21	-51.793	3.560	-14.764	C.3	1	RES1	0.000	
31	 C22	-50.423	1.085	-15.098	C.2	1	RES1	0.000	
32	 C23	-49.806	-0.135	-15.272	C.2	1	RES1	0.000	
33	 C24	-49.480	-0.926	-12.913	C.3	1	RES1	0.000	
34	 C60	-47.468	-0.350	-14.389	C.3	1	RES1	0.000	
35	 C61	-46.510	-1.408	-13.759	C.3	1	RES1	0.000	
36	 C62	-47.733	-2.905	-15.256	C.3	1	RES1	0.000	
37	 C63	-46.352	-3.849	-13.517	C.3	1	RES1	0.000	
@<TRIPOS>BOND
1 1 4 1
2 2 7 1
3 2 9 1
4 3 7 2
5 4 7 1
6 5 13 1
7 5 15 1
8 6 29 1
9 6 30 1
10 8 15 ar
11 8 16 ar
12 9 11 ar
13 11 13 ar
14 12 15 ar
15 14 34 1
16 16 17 ar
17 12 18 ar
18 17 18 ar
19 18 19 1
20 19 20 ar
21 19 28 ar
22 10 20 ar
23 21 35 1
24 21 36 1
25 21 37 1
26 10 22 1
27 10 23 ar
28 23 24 ar
29 23 28 ar
30 24 25 ar
31 25 26 ar
32 26 27 ar
33 27 28 ar
34 13 29 ar
35 29 31 ar
36 31 32 ar
37 9 32 ar
38 14 32 1
39 14 33 1
40 34 35 1
@<TRIPOS>SUBSTRUCTURE
1	RES1	1	GROUP	1 ****	RES
