# created with PyMOL 2.5.2
@<TRIPOS>MOLECULE
BRD4_4F3I_TargetProtein
29 32 1                 
SMALL
USER_CHARGES
@<TRIPOS>ATOM
1	 CL1	30.177	48.887	-7.044	Cl	1	RES1	0.000	
2	  C1	22.225	54.512	-5.102	C.3	1	RES1	0.000	
3	  N1	25.351	51.072	-2.897	N.2	1	RES1	0.000	
4	  O1	22.177	53.350	-4.297	O.3	1	RES1	0.000	
5	  S1	27.432	50.571	1.329	S.2	1	RES1	0.000	
6	  C2	23.281	53.162	-3.498	C.2	1	RES1	0.000	
7	  O2	24.264	53.880	-3.441	O.co2	1	RES1	0.000	
8	  C3	23.097	51.927	-2.633	C.3	1	RES1	0.000	
9	  O3	30.874	52.249	0.765	O.2	1	RES1	0.000	
10	  C4	24.385	51.560	-1.910	C.3	1	RES1	0.000	
11	  C5	26.606	50.826	-2.610	C.2	1	RES1	0.000	
12	  C6	27.499	50.372	-3.718	C.2	1	RES1	0.000	
13	  N6	25.143	50.074	-0.034	N.2	1	RES1	0.000	
14	  C7	27.350	50.868	-4.976	C.2	1	RES1	0.000	
15	  N7	23.218	49.136	0.516	N.2	1	RES1	0.000	
16	  C8	28.171	50.433	-6.006	C.2	1	RES1	0.000	
17	  N8	23.010	49.934	-0.553	N.2	1	RES1	0.000	
18	  C9	29.137	49.455	-5.743	C.2	1	RES1	0.000	
19	 C10	29.302	48.927	-4.488	C.2	1	RES1	0.000	
20	 C11	28.472	49.364	-3.442	C.2	1	RES1	0.000	
21	 C12	27.133	50.999	-1.219	C.2	1	RES1	0.000	
22	 C13	26.443	50.529	-0.100	C.2	1	RES1	0.000	
23	 C14	28.676	51.372	0.470	C.2	1	RES1	0.000	
24	 C15	29.859	51.745	1.233	C.2	1	RES1	0.000	
25	 C37	28.390	51.574	-0.872	C.2	1	RES1	0.000	
26	 C38	29.299	52.316	-1.801	C.3	1	RES1	0.000	
27	 C39	24.472	49.217	0.842	C.2	1	RES1	0.000	
28	 C40	25.112	48.408	1.933	C.3	1	RES1	0.000	
29	 C41	24.134	50.502	-0.871	C.2	1	RES1	0.000	
@<TRIPOS>BOND
1 1 18 1
2 2 4 1
3 3 10 1
4 3 11 2
5 4 6 1
6 5 22 ar
7 5 23 ar
8 6 8 1
9 6 7 2
10 8 10 1
11 10 29 1
12 11 12 1
13 12 14 ar
14 14 16 ar
15 15 17 ar
16 16 18 ar
17 18 19 ar
18 19 20 ar
19 12 20 ar
20 11 21 1
21 21 22 ar
22 21 25 ar
23 13 22 1
24 23 24 1
25 23 25 ar
26 9 24 2
27 25 26 1
28 13 27 ar
29 15 27 ar
30 27 28 1
31 13 29 ar
32 17 29 ar
@<TRIPOS>SUBSTRUCTURE
1	RES1	1	GROUP	1 ****	RES
