# created with PyMOL 2.5.2
@<TRIPOS>MOLECULE
EGFR_6JWL_TargetProtein
37 40 1                 
SMALL
USER_CHARGES
@<TRIPOS>ATOM
1	  C1	-49.471	-5.569	-17.510	C.3	1	RES1	0.000	
2	  N1	-49.452	-2.222	-16.527	N.pl3	1	RES1	0.000	
3	  O1	-50.296	-2.943	-18.578	O.2	1	RES1	0.000	
4	  C2	-48.893	-4.380	-17.290	C.3	1	RES1	0.000	
5	  N2	-52.349	1.446	-18.264	N.pl3	1	RES1	0.000	
6	  O2	-51.902	2.861	-15.975	O.3	1	RES1	0.000	
7	  C3	-49.640	-3.103	-17.562	C.2	1	RES1	0.000	
8	  N3	-53.400	2.048	-20.331	N.2	1	RES1	0.000	
9	  C4	-50.036	-0.893	-16.429	C.2	1	RES1	0.000	
10	  N4	-49.334	-1.436	-23.727	N.2	1	RES1	0.000	
11	  C5	-50.875	-0.367	-17.410	C.2	1	RES1	0.000	
12	  N5	-51.475	0.674	-20.258	N.2	1	RES1	0.000	
13	  C6	-51.482	0.890	-17.276	C.2	1	RES1	0.000	
14	  N6	-48.952	-0.685	-14.188	N.pl3	1	RES1	0.000	
15	  C7	-52.427	1.392	-19.650	C.2	1	RES1	0.000	
16	  C8	-53.409	1.935	-21.666	C.2	1	RES1	0.000	
17	  C9	-52.454	1.214	-22.365	C.2	1	RES1	0.000	
18	 C10	-51.477	0.586	-21.617	C.2	1	RES1	0.000	
19	 C11	-50.414	-0.230	-22.209	C.2	1	RES1	0.000	
20	 C12	-50.486	-0.728	-23.471	C.2	1	RES1	0.000	
21	 N12	-46.471	-2.686	-14.322	N.3	1	RES1	0.000	
22	 C13	-49.029	-2.111	-25.007	C.3	1	RES1	0.000	
23	 C14	-48.491	-1.375	-22.631	C.2	1	RES1	0.000	
24	 C15	-47.233	-1.923	-22.428	C.2	1	RES1	0.000	
25	 C16	-46.612	-1.717	-21.230	C.2	1	RES1	0.000	
26	 C17	-47.233	-0.961	-20.228	C.2	1	RES1	0.000	
27	 C18	-48.516	-0.417	-20.427	C.2	1	RES1	0.000	
28	 C19	-49.147	-0.643	-21.662	C.2	1	RES1	0.000	
29	 C20	-51.242	1.569	-16.083	C.2	1	RES1	0.000	
30	 C21	-51.814	3.523	-14.737	C.3	1	RES1	0.000	
31	 C22	-50.438	1.087	-15.066	C.2	1	RES1	0.000	
32	 C23	-49.818	-0.197	-15.230	C.2	1	RES1	0.000	
33	 C24	-49.547	-1.008	-12.905	C.3	1	RES1	0.000	
34	 C60	-47.522	-0.329	-14.271	C.3	1	RES1	0.000	
35	 C61	-46.567	-1.380	-13.617	C.3	1	RES1	0.000	
36	 C62	-47.674	-2.880	-15.179	C.3	1	RES1	0.000	
37	 C63	-46.363	-3.805	-13.375	C.3	1	RES1	0.000	
@<TRIPOS>BOND
1 1 4 1
2 2 7 1
3 2 9 1
4 3 7 2
5 4 7 1
6 5 13 1
7 5 15 1
8 6 29 1
9 6 30 1
10 8 15 ar
11 8 16 ar
12 9 11 ar
13 11 13 ar
14 12 15 ar
15 14 34 1
16 16 17 ar
17 12 18 ar
18 17 18 ar
19 18 19 1
20 19 20 ar
21 19 28 ar
22 10 20 ar
23 21 35 1
24 21 36 1
25 21 37 1
26 10 22 1
27 10 23 ar
28 23 24 ar
29 23 28 ar
30 24 25 ar
31 25 26 ar
32 26 27 ar
33 27 28 ar
34 13 29 ar
35 29 31 ar
36 31 32 ar
37 9 32 ar
38 14 32 1
39 14 33 1
40 34 35 1
@<TRIPOS>SUBSTRUCTURE
1	RES1	1	GROUP	1 ****	RES
