# created with PyMOL 2.5.2
@<TRIPOS>MOLECULE
EGFR_6JWL_TargetProtein
37 40 1                 
SMALL
USER_CHARGES
@<TRIPOS>ATOM
1	  C1	-49.131	-5.542	-17.602	C.3	1	RES1	0.000	
2	  N1	-49.402	-2.123	-16.498	N.pl3	1	RES1	0.000	
3	  O1	-50.470	-3.069	-18.363	O.2	1	RES1	0.000	
4	  C2	-48.696	-4.260	-17.444	C.3	1	RES1	0.000	
5	  N2	-52.366	1.449	-18.232	N.pl3	1	RES1	0.000	
6	  O2	-51.969	2.879	-15.963	O.3	1	RES1	0.000	
7	  C3	-49.616	-3.066	-17.496	C.2	1	RES1	0.000	
8	  N3	-53.342	2.004	-20.245	N.2	1	RES1	0.000	
9	  C4	-50.099	-0.891	-16.341	C.2	1	RES1	0.000	
10	  N4	-49.324	-1.431	-23.781	N.2	1	RES1	0.000	
11	  C5	-50.943	-0.372	-17.308	C.2	1	RES1	0.000	
12	  N5	-51.417	0.613	-20.265	N.2	1	RES1	0.000	
13	  C6	-51.551	0.868	-17.197	C.2	1	RES1	0.000	
14	  N6	-48.925	-0.645	-14.183	N.pl3	1	RES1	0.000	
15	  C7	-52.369	1.307	-19.613	C.2	1	RES1	0.000	
16	  N7	-46.653	-2.786	-14.369	N.3	1	RES1	0.000	
17	  C8	-53.356	1.923	-21.600	C.2	1	RES1	0.000	
18	  C9	-52.449	1.230	-22.347	C.2	1	RES1	0.000	
19	 C10	-51.450	0.579	-21.620	C.2	1	RES1	0.000	
20	 C11	-50.386	-0.204	-22.235	C.2	1	RES1	0.000	
21	 C12	-50.469	-0.712	-23.535	C.2	1	RES1	0.000	
22	 C13	-49.045	-2.137	-25.037	C.3	1	RES1	0.000	
23	 C14	-48.509	-1.408	-22.685	C.2	1	RES1	0.000	
24	 C15	-47.237	-1.981	-22.513	C.2	1	RES1	0.000	
25	 C16	-46.606	-1.757	-21.278	C.2	1	RES1	0.000	
26	 C17	-47.210	-1.005	-20.269	C.2	1	RES1	0.000	
27	 C18	-48.452	-0.436	-20.487	C.2	1	RES1	0.000	
28	 C19	-49.127	-0.642	-21.718	C.2	1	RES1	0.000	
29	 C20	-51.286	1.620	-16.032	C.2	1	RES1	0.000	
30	 C21	-51.845	3.539	-14.702	C.3	1	RES1	0.000	
31	 C22	-50.443	1.121	-15.039	C.2	1	RES1	0.000	
32	 C23	-49.808	-0.115	-15.191	C.2	1	RES1	0.000	
33	 C24	-49.469	-0.676	-12.848	C.3	1	RES1	0.000	
34	 C25	-47.474	-0.383	-14.335	C.3	1	RES1	0.000	
35	 C26	-46.615	-1.460	-13.693	C.3	1	RES1	0.000	
36	 C27	-47.821	-2.891	-15.225	C.3	1	RES1	0.000	
37	 C28	-46.612	-3.908	-13.409	C.3	1	RES1	0.000	
@<TRIPOS>BOND
1 1 4 1
2 2 7 1
3 2 9 1
4 3 7 2
5 4 7 1
6 5 13 1
7 5 15 1
8 6 29 1
9 6 30 1
10 8 15 ar
11 8 17 ar
12 9 11 ar
13 11 13 ar
14 12 15 ar
15 17 18 ar
16 12 19 ar
17 18 19 ar
18 19 20 1
19 20 21 ar
20 20 28 ar
21 10 21 ar
22 10 22 1
23 10 23 ar
24 23 24 ar
25 23 28 ar
26 24 25 ar
27 25 26 ar
28 26 27 ar
29 27 28 ar
30 13 29 ar
31 29 31 ar
32 31 32 ar
33 9 32 ar
34 14 32 1
35 14 33 1
36 14 34 1
37 34 35 1
38 16 35 1
39 16 36 1
40 16 37 1
@<TRIPOS>SUBSTRUCTURE
1	RES1	1	GROUP	1 ****	RES
