# created with PyMOL 2.5.2
@<TRIPOS>MOLECULE
EGFR_6JWL_TargetProtein
37 40 1                 
SMALL
USER_CHARGES
@<TRIPOS>ATOM
1	  C1	-49.472	-5.577	-17.507	C.3	1	RES1	0.000	
2	  N1	-49.454	-2.189	-16.551	N.pl3	1	RES1	0.000	
3	  O1	-50.282	-2.935	-18.608	O.2	1	RES1	0.000	
4	  C2	-48.898	-4.395	-17.317	C.3	1	RES1	0.000	
5	  N2	-52.389	1.446	-18.254	N.pl3	1	RES1	0.000	
6	  O2	-51.909	2.835	-15.983	O.3	1	RES1	0.000	
7	  C3	-49.654	-3.117	-17.564	C.2	1	RES1	0.000	
8	  N3	-53.455	2.004	-20.324	N.2	1	RES1	0.000	
9	  C4	-50.035	-0.891	-16.428	C.2	1	RES1	0.000	
10	  N4	-49.300	-1.473	-23.605	N.2	1	RES1	0.000	
11	  C5	-50.886	-0.379	-17.387	C.2	1	RES1	0.000	
12	  N5	-51.491	0.657	-20.189	N.2	1	RES1	0.000	
13	  C6	-51.514	0.876	-17.256	C.2	1	RES1	0.000	
14	  N6	-48.898	-0.661	-14.241	N.pl3	1	RES1	0.000	
15	  C7	-52.459	1.381	-19.622	C.2	1	RES1	0.000	
16	  N7	-46.712	-2.823	-14.231	N.3	1	RES1	0.000	
17	  C8	-53.436	1.865	-21.657	C.2	1	RES1	0.000	
18	  C9	-52.479	1.167	-22.369	C.2	1	RES1	0.000	
19	 C10	-51.495	0.556	-21.578	C.2	1	RES1	0.000	
20	 C11	-50.425	-0.220	-22.137	C.2	1	RES1	0.000	
21	 C12	-50.461	-0.763	-23.384	C.2	1	RES1	0.000	
22	 C13	-48.979	-2.193	-24.828	C.3	1	RES1	0.000	
23	 C14	-48.483	-1.393	-22.500	C.2	1	RES1	0.000	
24	 C15	-47.238	-1.971	-22.236	C.2	1	RES1	0.000	
25	 C16	-46.638	-1.706	-21.051	C.2	1	RES1	0.000	
26	 C17	-47.274	-0.902	-20.078	C.2	1	RES1	0.000	
27	 C18	-48.519	-0.368	-20.327	C.2	1	RES1	0.000	
28	 C19	-49.157	-0.622	-21.532	C.2	1	RES1	0.000	
29	 C20	-51.261	1.598	-16.080	C.2	1	RES1	0.000	
30	 C21	-51.797	3.514	-14.718	C.3	1	RES1	0.000	
31	 C22	-50.413	1.069	-15.092	C.2	1	RES1	0.000	
32	 C23	-49.791	-0.168	-15.228	C.2	1	RES1	0.000	
33	 C24	-49.429	-0.890	-12.878	C.3	1	RES1	0.000	
34	 C25	-47.437	-0.376	-14.377	C.3	1	RES1	0.000	
35	 C26	-46.588	-1.445	-13.677	C.3	1	RES1	0.000	
36	 C27	-48.090	-3.143	-14.649	C.3	1	RES1	0.000	
37	 C28	-45.749	-3.134	-15.261	C.3	1	RES1	0.000	
@<TRIPOS>BOND
1 1 4 1
2 2 7 1
3 2 9 1
4 3 7 2
5 4 7 1
6 5 13 1
7 5 15 1
8 6 29 1
9 6 30 1
10 8 15 ar
11 8 17 ar
12 9 11 ar
13 11 13 ar
14 12 15 ar
15 17 18 ar
16 12 19 ar
17 18 19 ar
18 19 20 1
19 20 21 ar
20 20 28 ar
21 10 21 ar
22 10 22 1
23 10 23 ar
24 23 24 ar
25 23 28 ar
26 24 25 ar
27 25 26 ar
28 26 27 ar
29 27 28 ar
30 13 29 ar
31 29 31 ar
32 31 32 ar
33 9 32 ar
34 14 32 1
35 14 33 1
36 14 34 1
37 34 35 1
38 16 35 1
39 16 36 1
40 16 37 1
@<TRIPOS>SUBSTRUCTURE
1	RES1	1	GROUP	1 ****	RES
