# created with PyMOL 2.5.2
@<TRIPOS>MOLECULE
EGFR_6JWL_TargetProtein
37 40 1                 
SMALL
USER_CHARGES
@<TRIPOS>ATOM
1	  C1	-49.054	-5.433	-17.454	C.3	1	RES1	0.000	
2	  N1	-49.393	-2.094	-16.423	N.pl3	1	RES1	0.000	
3	  O1	-50.450	-2.987	-18.315	O.2	1	RES1	0.000	
4	  C2	-48.657	-4.158	-17.314	C.3	1	RES1	0.000	
5	  N2	-52.355	1.443	-18.216	N.pl3	1	RES1	0.000	
6	  O2	-51.897	2.933	-16.020	O.3	1	RES1	0.000	
7	  C3	-49.596	-3.026	-17.405	C.2	1	RES1	0.000	
8	  N3	-53.371	1.968	-20.249	N.2	1	RES1	0.000	
9	  C4	-50.072	-0.861	-16.285	C.2	1	RES1	0.000	
10	  N4	-49.365	-1.408	-23.841	N.2	1	RES1	0.000	
11	  C5	-50.937	-0.365	-17.262	C.2	1	RES1	0.000	
12	  N5	-51.396	0.635	-20.271	N.2	1	RES1	0.000	
13	  C6	-51.536	0.891	-17.202	C.2	1	RES1	0.000	
14	  N6	-48.969	-0.544	-14.066	N.pl3	1	RES1	0.000	
15	  C7	-52.333	1.331	-19.608	C.2	1	RES1	0.000	
16	  N7	-46.706	-2.735	-14.227	N.3	1	RES1	0.000	
17	  C8	-53.410	1.878	-21.597	C.2	1	RES1	0.000	
18	  C9	-52.485	1.188	-22.340	C.2	1	RES1	0.000	
19	 C10	-51.460	0.549	-21.624	C.2	1	RES1	0.000	
20	 C11	-50.395	-0.212	-22.270	C.2	1	RES1	0.000	
21	 C12	-50.491	-0.712	-23.541	C.2	1	RES1	0.000	
22	 C13	-49.101	-2.097	-25.111	C.3	1	RES1	0.000	
23	 C14	-48.508	-1.397	-22.769	C.2	1	RES1	0.000	
24	 C15	-47.251	-1.985	-22.584	C.2	1	RES1	0.000	
25	 C16	-46.594	-1.768	-21.362	C.2	1	RES1	0.000	
26	 C17	-47.188	-1.034	-20.353	C.2	1	RES1	0.000	
27	 C18	-48.459	-0.455	-20.539	C.2	1	RES1	0.000	
28	 C19	-49.130	-0.653	-21.774	C.2	1	RES1	0.000	
29	 C20	-51.284	1.678	-16.058	C.2	1	RES1	0.000	
30	 C21	-51.788	3.706	-14.803	C.3	1	RES1	0.000	
31	 C22	-50.407	1.196	-15.048	C.2	1	RES1	0.000	
32	 C23	-49.807	-0.064	-15.139	C.2	1	RES1	0.000	
33	 C24	-49.381	-1.775	-13.368	C.3	1	RES1	0.000	
34	 C25	-47.515	-0.272	-14.215	C.3	1	RES1	0.000	
35	 C26	-46.674	-1.396	-13.553	C.3	1	RES1	0.000	
36	 C27	-47.823	-2.845	-15.201	C.3	1	RES1	0.000	
37	 C28	-46.702	-3.884	-13.294	C.3	1	RES1	0.000	
@<TRIPOS>BOND
1 1 4 1
2 2 7 1
3 2 9 1
4 3 7 2
5 4 7 1
6 5 13 1
7 5 15 1
8 6 29 1
9 6 30 1
10 8 15 ar
11 8 17 ar
12 9 11 ar
13 11 13 ar
14 12 15 ar
15 17 18 ar
16 12 19 ar
17 18 19 ar
18 19 20 1
19 20 21 ar
20 20 28 ar
21 10 21 ar
22 10 22 1
23 10 23 ar
24 23 24 ar
25 23 28 ar
26 24 25 ar
27 25 26 ar
28 26 27 ar
29 27 28 ar
30 13 29 ar
31 29 31 ar
32 31 32 ar
33 9 32 ar
34 14 32 1
35 14 33 1
36 14 34 1
37 34 35 1
38 16 35 1
39 16 36 1
40 16 37 1
@<TRIPOS>SUBSTRUCTURE
1	RES1	1	GROUP	1 ****	RES
