# created with PyMOL 2.5.2
@<TRIPOS>MOLECULE
EGFR_6JWL_TargetProtein
37 40 1                 
SMALL
USER_CHARGES
@<TRIPOS>ATOM
1	  C1	-49.300	-5.502	-17.596	C.3	1	RES1	0.000	
2	  N1	-49.483	-2.080	-16.514	N.pl3	1	RES1	0.000	
3	  O1	-50.531	-2.961	-18.413	O.2	1	RES1	0.000	
4	  C2	-48.848	-4.225	-17.426	C.3	1	RES1	0.000	
5	  N2	-52.410	1.501	-18.250	N.pl3	1	RES1	0.000	
6	  O2	-51.883	2.994	-16.079	O.3	1	RES1	0.000	
7	  C3	-49.701	-3.002	-17.510	C.2	1	RES1	0.000	
8	  N3	-53.477	2.018	-20.354	N.2	1	RES1	0.000	
9	  C4	-50.158	-0.816	-16.371	C.2	1	RES1	0.000	
10	  N4	-49.295	-1.478	-23.645	N.2	1	RES1	0.000	
11	  C5	-50.988	-0.297	-17.369	C.2	1	RES1	0.000	
12	  N5	-51.504	0.669	-20.244	N.2	1	RES1	0.000	
13	  C6	-51.571	0.962	-17.252	C.2	1	RES1	0.000	
14	  N6	-48.996	-0.549	-14.169	N.pl3	1	RES1	0.000	
15	  C7	-52.490	1.401	-19.652	C.2	1	RES1	0.000	
16	  N7	-46.928	-2.832	-14.329	N.3	1	RES1	0.000	
17	  C8	-53.438	1.849	-21.690	C.2	1	RES1	0.000	
18	  C9	-52.476	1.149	-22.368	C.2	1	RES1	0.000	
19	 C10	-51.497	0.561	-21.588	C.2	1	RES1	0.000	
20	 C11	-50.400	-0.222	-22.177	C.2	1	RES1	0.000	
21	 C12	-50.455	-0.773	-23.425	C.2	1	RES1	0.000	
22	 C13	-48.976	-2.195	-24.859	C.3	1	RES1	0.000	
23	 C14	-48.484	-1.406	-22.529	C.2	1	RES1	0.000	
24	 C15	-47.219	-1.957	-22.316	C.2	1	RES1	0.000	
25	 C16	-46.638	-1.680	-21.036	C.2	1	RES1	0.000	
26	 C17	-47.285	-0.937	-20.090	C.2	1	RES1	0.000	
27	 C18	-48.539	-0.407	-20.336	C.2	1	RES1	0.000	
28	 C19	-49.171	-0.644	-21.584	C.2	1	RES1	0.000	
29	 C20	-51.268	1.724	-16.115	C.2	1	RES1	0.000	
30	 C21	-51.772	3.716	-14.849	C.3	1	RES1	0.000	
31	 C22	-50.431	1.246	-15.119	C.2	1	RES1	0.000	
32	 C23	-49.878	-0.042	-15.224	C.2	1	RES1	0.000	
33	 C24	-49.451	-1.677	-13.365	C.3	1	RES1	0.000	
34	 C25	-47.522	-0.365	-14.398	C.3	1	RES1	0.000	
35	 C26	-46.684	-1.495	-13.731	C.3	1	RES1	0.000	
36	 C27	-45.914	-3.097	-15.399	C.3	1	RES1	0.000	
37	 C28	-46.885	-3.917	-13.331	C.3	1	RES1	0.000	
@<TRIPOS>BOND
1 1 4 1
2 2 7 1
3 2 9 1
4 3 7 2
5 4 7 1
6 5 13 1
7 5 15 1
8 6 29 1
9 6 30 1
10 8 15 ar
11 8 17 ar
12 9 11 ar
13 11 13 ar
14 12 15 ar
15 17 18 ar
16 12 19 ar
17 18 19 ar
18 19 20 1
19 20 21 ar
20 20 28 ar
21 10 21 ar
22 10 22 1
23 10 23 ar
24 23 24 ar
25 23 28 ar
26 24 25 ar
27 25 26 ar
28 26 27 ar
29 27 28 ar
30 13 29 ar
31 29 31 ar
32 31 32 ar
33 9 32 ar
34 14 32 1
35 14 33 1
36 14 34 1
37 34 35 1
38 16 35 1
39 16 36 1
40 16 37 1
@<TRIPOS>SUBSTRUCTURE
1	RES1	1	GROUP	1 ****	RES
