# created with PyMOL 2.5.2
@<TRIPOS>MOLECULE
EGFR_6XL4_TargetProtein
42 47 1                 
SMALL
USER_CHARGES
@<TRIPOS>ATOM
1	  C1	-31.765	17.028	-14.857	C.3	1	RES1	0.000	
2	  N1	-32.756	16.746	-9.794	N.pl3	1	RES1	0.000	
3	  O1	-30.820	17.907	-14.238	O.3	1	RES1	0.000	
4	  C2	-30.825	17.916	-12.808	C.2	1	RES1	0.000	
5	  N2	-35.132	15.858	-8.417	N.3	1	RES1	0.000	
6	  C3	-31.799	17.302	-12.015	C.2	1	RES1	0.000	
7	  C4	-31.720	17.353	-10.595	C.2	1	RES1	0.000	
8	  C5	-33.697	15.825	-10.487	C.3	1	RES1	0.000	
9	  C6	-34.461	15.021	-9.433	C.3	1	RES1	0.000	
10	  C7	-35.847	15.046	-7.427	C.3	1	RES1	0.000	
11	  O7	-28.916	19.627	-8.147	O.2	1	RES1	0.000	
12	  N8	-30.593	18.070	-8.589	N.pl3	1	RES1	0.000	
13	  N9	-28.045	19.259	-4.704	N.3	1	RES1	0.000	
14	 N10	-28.784	19.229	-13.057	N.pl3	1	RES1	0.000	
15	 N11	-27.251	20.752	-14.114	N.2	1	RES1	0.000	
16	 N12	-27.438	24.837	-9.260	N.2	1	RES1	0.000	
17	 N13	-28.237	21.219	-12.019	N.2	1	RES1	0.000	
18	 C38	-34.119	16.740	-7.756	C.3	1	RES1	0.000	
19	 C39	-33.344	17.586	-8.736	C.3	1	RES1	0.000	
20	 C40	-30.675	18.072	-10.031	C.2	1	RES1	0.000	
21	 C41	-29.757	18.847	-7.769	C.2	1	RES1	0.000	
22	 C42	-29.975	18.587	-6.313	C.3	1	RES1	0.000	
23	 C43	-28.912	18.968	-5.452	C.3	1	RES1	0.000	
24	 C44	-31.133	18.131	-5.842	C.3	1	RES1	0.000	
25	 C45	-31.504	17.844	-4.457	C.3	1	RES1	0.000	
26	 C46	-32.918	18.026	-4.012	C.3	1	RES1	0.000	
27	 C47	-31.885	19.003	-3.580	C.3	1	RES1	0.000	
28	 C48	-29.705	18.684	-10.825	C.2	1	RES1	0.000	
29	 C49	-29.754	18.626	-12.223	C.2	1	RES1	0.000	
30	 C50	-28.077	20.429	-13.068	C.2	1	RES1	0.000	
31	 C51	-26.614	21.909	-14.060	C.2	1	RES1	0.000	
32	 C52	-26.733	22.807	-12.993	C.2	1	RES1	0.000	
33	 C53	-27.574	22.380	-11.986	C.2	1	RES1	0.000	
34	 C54	-27.779	23.236	-10.795	C.2	1	RES1	0.000	
35	 C55	-26.911	24.219	-10.372	C.2	1	RES1	0.000	
36	 C56	-26.792	25.909	-8.515	C.3	1	RES1	0.000	
37	 C57	-28.679	24.274	-8.941	C.2	1	RES1	0.000	
38	 C58	-29.547	24.575	-7.919	C.2	1	RES1	0.000	
39	 C59	-30.740	23.813	-7.845	C.2	1	RES1	0.000	
40	 C60	-30.997	22.825	-8.761	C.2	1	RES1	0.000	
41	 C61	-30.096	22.537	-9.792	C.2	1	RES1	0.000	
42	 C62	-28.919	23.261	-9.892	C.2	1	RES1	0.000	
@<TRIPOS>BOND
1 2 7 1
2 2 8 1
3 2 19 1
4 1 3 1
5 3 4 1
6 4 6 ar
7 4 29 ar
8 5 9 1
9 5 10 1
10 5 18 1
11 6 7 ar
12 7 20 ar
13 8 9 1
14 14 29 1
15 14 30 1
16 15 30 ar
17 15 31 ar
18 16 35 ar
19 16 36 1
20 16 37 ar
21 17 30 ar
22 17 33 ar
23 18 19 1
24 12 20 1
25 20 28 ar
26 11 21 2
27 12 21 1
28 21 22 1
29 22 23 1
30 22 24 1
31 13 23 1
32 24 25 1
33 25 26 1
34 25 27 1
35 26 27 1
36 28 29 ar
37 31 32 ar
38 32 33 ar
39 33 34 1
40 34 35 ar
41 34 42 ar
42 37 38 ar
43 37 42 ar
44 38 39 ar
45 39 40 ar
46 40 41 ar
47 41 42 ar
@<TRIPOS>SUBSTRUCTURE
1	RES1	1	GROUP	1 ****	RES
