# created with PyMOL 2.5.2
@<TRIPOS>MOLECULE
EGFR_6XL4_TargetProtein
42 47 1                 
SMALL
USER_CHARGES
@<TRIPOS>ATOM
1	  C1	-31.815	17.008	-14.869	C.3	1	RES1	0.000	
2	  N1	-32.828	16.709	-9.818	N.pl3	1	RES1	0.000	
3	  O1	-30.867	17.889	-14.232	O.3	1	RES1	0.000	
4	  C2	-30.877	17.908	-12.806	C.2	1	RES1	0.000	
5	  N2	-35.140	15.743	-8.394	N.3	1	RES1	0.000	
6	  C3	-31.868	17.302	-12.013	C.2	1	RES1	0.000	
7	  C4	-31.804	17.319	-10.620	C.2	1	RES1	0.000	
8	  C5	-33.753	15.787	-10.485	C.3	1	RES1	0.000	
9	  C6	-34.482	14.920	-9.416	C.3	1	RES1	0.000	
10	  C7	-35.837	14.920	-7.421	C.3	1	RES1	0.000	
11	  O7	-29.081	19.709	-8.247	O.2	1	RES1	0.000	
12	  N8	-30.660	18.027	-8.597	N.pl3	1	RES1	0.000	
13	  N9	-28.080	19.342	-4.721	N.3	1	RES1	0.000	
14	 N10	-28.823	19.183	-13.045	N.pl3	1	RES1	0.000	
15	 N11	-27.304	20.657	-14.025	N.2	1	RES1	0.000	
16	 N12	-27.337	24.908	-9.331	N.2	1	RES1	0.000	
17	 N13	-28.233	21.250	-11.937	N.2	1	RES1	0.000	
18	 C38	-34.140	16.631	-7.728	C.3	1	RES1	0.000	
19	 C39	-33.386	17.533	-8.748	C.3	1	RES1	0.000	
20	 C40	-30.736	18.058	-10.030	C.2	1	RES1	0.000	
21	 C41	-29.805	18.824	-7.791	C.2	1	RES1	0.000	
22	 C42	-29.880	18.506	-6.323	C.3	1	RES1	0.000	
23	 C43	-28.884	18.964	-5.414	C.3	1	RES1	0.000	
24	 C44	-30.922	17.749	-5.942	C.3	1	RES1	0.000	
25	 C45	-31.213	17.314	-4.567	C.3	1	RES1	0.000	
26	 C46	-32.631	17.281	-4.099	C.3	1	RES1	0.000	
27	 C47	-31.691	18.316	-3.530	C.3	1	RES1	0.000	
28	 C48	-29.769	18.642	-10.814	C.2	1	RES1	0.000	
29	 C49	-29.812	18.595	-12.221	C.2	1	RES1	0.000	
30	 C50	-28.113	20.393	-12.998	C.2	1	RES1	0.000	
31	 C51	-26.605	21.801	-14.040	C.2	1	RES1	0.000	
32	 C52	-26.694	22.737	-13.016	C.2	1	RES1	0.000	
33	 C53	-27.547	22.403	-11.959	C.2	1	RES1	0.000	
34	 C54	-27.724	23.282	-10.799	C.2	1	RES1	0.000	
35	 C55	-26.839	24.248	-10.414	C.2	1	RES1	0.000	
36	 C56	-26.663	25.996	-8.641	C.3	1	RES1	0.000	
37	 C57	-28.566	24.384	-8.986	C.2	1	RES1	0.000	
38	 C58	-29.430	24.742	-7.963	C.2	1	RES1	0.000	
39	 C59	-30.626	24.033	-7.825	C.2	1	RES1	0.000	
40	 C60	-30.942	22.988	-8.734	C.2	1	RES1	0.000	
41	 C61	-30.044	22.668	-9.718	C.2	1	RES1	0.000	
42	 C62	-28.831	23.352	-9.888	C.2	1	RES1	0.000	
@<TRIPOS>BOND
1 2 7 1
2 2 8 1
3 2 19 1
4 1 3 1
5 3 4 1
6 4 6 ar
7 4 29 ar
8 5 9 1
9 5 10 1
10 5 18 1
11 6 7 ar
12 7 20 ar
13 8 9 1
14 14 29 1
15 14 30 1
16 15 30 ar
17 15 31 ar
18 16 35 ar
19 16 36 1
20 16 37 ar
21 17 30 ar
22 17 33 ar
23 18 19 1
24 12 20 1
25 20 28 ar
26 11 21 2
27 12 21 1
28 21 22 1
29 22 23 1
30 22 24 1
31 13 23 1
32 24 25 1
33 25 26 1
34 25 27 1
35 26 27 1
36 28 29 ar
37 31 32 ar
38 32 33 ar
39 33 34 1
40 34 35 ar
41 34 42 ar
42 37 38 ar
43 37 42 ar
44 38 39 ar
45 39 40 ar
46 40 41 ar
47 41 42 ar
@<TRIPOS>SUBSTRUCTURE
1	RES1	1	GROUP	1 ****	RES
