# created with PyMOL 2.5.2
@<TRIPOS>MOLECULE
EGFR_6XL4_TargetProtein
45 50 1                 
SMALL
USER_CHARGES
@<TRIPOS>ATOM
1	  C1	-31.775	16.985	-14.856	C.3	1	RES1	0.000	
2	  N1	-32.833	16.709	-9.841	N.pl3	1	RES1	0.000	
3	  O1	-30.872	17.897	-14.226	O.3	1	RES1	0.000	
4	  C2	-30.893	17.938	-12.784	C.2	1	RES1	0.000	
5	  N2	-35.143	15.750	-8.378	N.3	1	RES1	0.000	
6	  C3	-31.869	17.307	-12.048	C.2	1	RES1	0.000	
7	  C4	-31.832	17.358	-10.619	C.2	1	RES1	0.000	
8	  C5	-33.752	15.728	-10.447	C.3	1	RES1	0.000	
9	  C6	-34.448	14.922	-9.394	C.3	1	RES1	0.000	
10	  C7	-35.820	14.906	-7.399	C.3	1	RES1	0.000	
11	  O7	-29.048	19.649	-8.259	O.2	1	RES1	0.000	
12	  N8	-30.665	18.027	-8.601	N.pl3	1	RES1	0.000	
13	  N9	-27.956	19.543	-4.900	N.3	1	RES1	0.000	
14	 N10	-31.282	16.394	-1.825	N.3	1	RES1	0.000	
15	 N11	-28.818	19.188	-13.022	N.pl3	1	RES1	0.000	
16	 N12	-27.281	20.630	-14.033	N.2	1	RES1	0.000	
17	 N13	-27.344	24.928	-9.339	N.2	1	RES1	0.000	
18	 N14	-28.257	21.235	-11.936	N.2	1	RES1	0.000	
19	 C38	-34.166	16.653	-7.738	C.3	1	RES1	0.000	
20	 C39	-33.460	17.561	-8.775	C.3	1	RES1	0.000	
21	 C40	-30.792	18.040	-10.039	C.2	1	RES1	0.000	
22	 C41	-29.813	18.778	-7.831	C.2	1	RES1	0.000	
23	 C42	-29.814	18.473	-6.360	C.3	1	RES1	0.000	
24	 C43	-28.813	19.033	-5.513	C.3	1	RES1	0.000	
25	 C44	-30.749	17.666	-5.858	C.3	1	RES1	0.000	
26	 C45	-30.927	17.245	-4.471	C.3	1	RES1	0.000	
27	 C46	-30.932	15.878	-4.151	C.3	1	RES1	0.000	
28	 C47	-31.088	15.516	-2.813	C.3	1	RES1	0.000	
29	 C48	-31.284	17.680	-2.151	C.3	1	RES1	0.000	
30	 C49	-31.128	18.164	-3.442	C.3	1	RES1	0.000	
31	 C50	-29.798	18.657	-10.818	C.2	1	RES1	0.000	
32	 C51	-29.809	18.608	-12.215	C.2	1	RES1	0.000	
33	 C52	-28.109	20.414	-12.958	C.2	1	RES1	0.000	
34	 C53	-26.591	21.794	-14.007	C.2	1	RES1	0.000	
35	 C54	-26.675	22.723	-12.976	C.2	1	RES1	0.000	
36	 C55	-27.541	22.392	-11.929	C.2	1	RES1	0.000	
37	 C56	-27.729	23.262	-10.785	C.2	1	RES1	0.000	
38	 C57	-26.816	24.240	-10.408	C.2	1	RES1	0.000	
39	 C58	-26.676	26.014	-8.643	C.3	1	RES1	0.000	
40	 C59	-28.577	24.409	-8.962	C.2	1	RES1	0.000	
41	 C60	-29.440	24.742	-7.962	C.2	1	RES1	0.000	
42	 C61	-30.625	24.033	-7.849	C.2	1	RES1	0.000	
43	 C62	-30.935	23.008	-8.718	C.2	1	RES1	0.000	
44	 C63	-30.057	22.661	-9.758	C.2	1	RES1	0.000	
45	 C64	-28.855	23.366	-9.874	C.2	1	RES1	0.000	
@<TRIPOS>BOND
1 1 3 1
2 2 7 1
3 2 8 1
4 2 20 1
5 3 4 1
6 4 6 ar
7 4 32 ar
8 5 9 1
9 5 10 1
10 5 19 1
11 6 7 ar
12 7 21 ar
13 8 9 1
14 14 28 1
15 14 29 1
16 15 32 1
17 15 33 1
18 16 33 ar
19 16 34 ar
20 17 38 ar
21 17 39 1
22 17 40 ar
23 18 33 ar
24 18 36 ar
25 19 20 1
26 12 21 1
27 21 31 ar
28 11 22 2
29 12 22 1
30 22 23 1
31 23 24 1
32 23 25 1
33 13 24 1
34 25 26 1
35 26 27 1
36 26 30 1
37 27 28 1
38 29 30 1
39 31 32 ar
40 34 35 ar
41 35 36 ar
42 36 37 1
43 37 38 ar
44 37 45 ar
45 40 41 ar
46 40 45 ar
47 41 42 ar
48 42 43 ar
49 43 44 ar
50 44 45 ar
@<TRIPOS>SUBSTRUCTURE
1	RES1	1	GROUP	1 ****	RES
