# created with PyMOL 2.5.2
@<TRIPOS>MOLECULE
EGFR_6XL4_TargetProtein
45 50 1                 
SMALL
USER_CHARGES
@<TRIPOS>ATOM
1	  C1	-31.840	17.172	-14.969	C.3	1	RES1	0.000	
2	  N1	-32.936	16.739	-9.950	N.pl3	1	RES1	0.000	
3	  O1	-30.875	17.982	-14.255	O.3	1	RES1	0.000	
4	  C2	-30.891	17.945	-12.871	C.2	1	RES1	0.000	
5	  N2	-34.708	15.568	-7.986	N.3	1	RES1	0.000	
6	  C3	-31.913	17.349	-12.120	C.2	1	RES1	0.000	
7	  C4	-31.879	17.350	-10.721	C.2	1	RES1	0.000	
8	  C5	-32.844	15.310	-9.632	C.3	1	RES1	0.000	
9	  C6	-34.173	14.785	-9.132	C.3	1	RES1	0.000	
10	  C7	-35.979	15.030	-7.530	C.3	1	RES1	0.000	
11	  O7	-29.040	19.458	-8.158	O.2	1	RES1	0.000	
12	  N8	-30.799	18.011	-8.630	N.pl3	1	RES1	0.000	
13	  N9	-28.347	19.207	-4.712	N.2	1	RES1	0.000	
14	 N10	-32.637	16.986	-2.009	N.3	1	RES1	0.000	
15	 N11	-28.799	19.193	-13.053	N.pl3	1	RES1	0.000	
16	 N12	-27.288	20.643	-14.009	N.2	1	RES1	0.000	
17	 N13	-27.287	24.955	-9.391	N.2	1	RES1	0.000	
18	 N14	-28.235	21.257	-11.935	N.2	1	RES1	0.000	
19	 C38	-34.792	17.007	-8.384	C.3	1	RES1	0.000	
20	 C39	-33.499	17.593	-8.861	C.3	1	RES1	0.000	
21	 C40	-30.805	17.947	-10.052	C.2	1	RES1	0.000	
22	 C41	-29.947	18.693	-7.806	C.2	1	RES1	0.000	
23	 C42	-30.203	18.497	-6.359	C.3	1	RES1	0.000	
24	 C43	-29.170	18.866	-5.457	C.2	1	RES1	0.000	
25	 C44	-31.358	17.883	-5.969	C.3	1	RES1	0.000	
26	 C45	-31.771	17.605	-4.596	C.3	1	RES1	0.000	
27	 C46	-31.898	18.600	-3.649	C.3	1	RES1	0.000	
28	 C47	-32.334	18.251	-2.361	C.3	1	RES1	0.000	
29	 C48	-32.521	16.015	-2.960	C.3	1	RES1	0.000	
30	 C49	-32.098	16.272	-4.241	C.3	1	RES1	0.000	
31	 C50	-29.774	18.578	-10.840	C.2	1	RES1	0.000	
32	 C51	-29.812	18.576	-12.228	C.2	1	RES1	0.000	
33	 C52	-28.095	20.400	-12.950	C.2	1	RES1	0.000	
34	 C53	-26.592	21.804	-14.007	C.2	1	RES1	0.000	
35	 C54	-26.686	22.722	-13.002	C.2	1	RES1	0.000	
36	 C55	-27.546	22.420	-11.952	C.2	1	RES1	0.000	
37	 C56	-27.739	23.313	-10.815	C.2	1	RES1	0.000	
38	 C57	-26.816	24.264	-10.473	C.2	1	RES1	0.000	
39	 C58	-26.569	26.029	-8.726	C.3	1	RES1	0.000	
40	 C59	-28.525	24.440	-8.993	C.2	1	RES1	0.000	
41	 C60	-29.361	24.821	-7.957	C.2	1	RES1	0.000	
42	 C61	-30.567	24.113	-7.822	C.2	1	RES1	0.000	
43	 C62	-30.881	23.068	-8.674	C.2	1	RES1	0.000	
44	 C63	-30.051	22.705	-9.707	C.2	1	RES1	0.000	
45	 C64	-28.827	23.413	-9.892	C.2	1	RES1	0.000	
@<TRIPOS>BOND
1 1 3 1
2 2 7 1
3 2 8 1
4 2 20 1
5 3 4 1
6 4 6 ar
7 4 32 ar
8 5 9 1
9 5 10 1
10 5 19 1
11 6 7 ar
12 7 21 ar
13 8 9 1
14 14 28 1
15 14 29 1
16 15 32 1
17 15 33 1
18 16 33 ar
19 16 34 ar
20 17 38 ar
21 17 39 1
22 17 40 ar
23 18 33 ar
24 18 36 ar
25 19 20 1
26 12 21 1
27 21 31 ar
28 11 22 2
29 12 22 1
30 22 23 1
31 23 24 1
32 23 25 1
33 13 24 2
34 25 26 1
35 26 27 1
36 26 30 1
37 27 28 1
38 29 30 1
39 31 32 ar
40 34 35 ar
41 35 36 ar
42 36 37 1
43 37 38 ar
44 37 45 ar
45 40 41 ar
46 40 45 ar
47 41 42 ar
48 42 43 ar
49 43 44 ar
50 44 45 ar
@<TRIPOS>SUBSTRUCTURE
1	RES1	1	GROUP	1 ****	RES
