# created with PyMOL 2.5.2
@<TRIPOS>MOLECULE
EGFR_6XL4_TargetProtein
38 42 1                 
SMALL
USER_CHARGES
@<TRIPOS>ATOM
1	  C1	-31.714	16.996	-14.853	C.3	1	RES1	0.000	
2	  N1	-32.779	16.865	-9.810	N.pl3	1	RES1	0.000	
3	  O1	-30.782	17.865	-14.222	O.3	1	RES1	0.000	
4	  C2	-30.770	17.926	-12.815	C.2	1	RES1	0.000	
5	  N2	-35.112	16.012	-8.368	N.3	1	RES1	0.000	
6	  O2	-28.943	19.762	-8.247	O.2	1	RES1	0.000	
7	  C3	-31.777	17.326	-12.029	C.2	1	RES1	0.000	
8	  N3	-30.606	18.170	-8.608	N.pl3	1	RES1	0.000	
9	  C4	-31.726	17.450	-10.611	C.2	1	RES1	0.000	
10	  N4	-27.594	18.553	-5.204	N.3	1	RES1	0.000	
11	  C5	-33.409	17.743	-8.792	C.3	1	RES1	0.000	
12	  C6	-34.135	16.912	-7.770	C.3	1	RES1	0.000	
13	  C7	-35.810	15.211	-7.312	C.3	1	RES1	0.000	
14	  C8	-34.413	15.097	-9.304	C.3	1	RES1	0.000	
15	  C9	-33.690	15.881	-10.401	C.3	1	RES1	0.000	
16	 C10	-30.660	18.144	-10.021	C.2	1	RES1	0.000	
17	 N10	-28.738	19.187	-13.085	N.pl3	1	RES1	0.000	
18	 C11	-29.750	18.948	-7.825	C.2	1	RES1	0.000	
19	 N11	-27.165	20.740	-14.113	N.2	1	RES1	0.000	
20	 C12	-29.930	18.736	-6.361	C.3	1	RES1	0.000	
21	 N12	-27.560	24.756	-9.224	N.2	1	RES1	0.000	
22	 C13	-28.621	18.614	-5.708	C.3	1	RES1	0.000	
23	 N13	-28.236	21.191	-12.035	N.2	1	RES1	0.000	
24	 C47	-29.681	18.724	-10.838	C.2	1	RES1	0.000	
25	 C48	-29.709	18.650	-12.225	C.2	1	RES1	0.000	
26	 C49	-27.999	20.407	-13.084	C.2	1	RES1	0.000	
27	 C50	-26.555	21.920	-14.033	C.2	1	RES1	0.000	
28	 C51	-26.712	22.800	-12.966	C.2	1	RES1	0.000	
29	 C52	-27.596	22.380	-11.964	C.2	1	RES1	0.000	
30	 C53	-27.875	23.225	-10.802	C.2	1	RES1	0.000	
31	 C54	-27.014	24.225	-10.346	C.2	1	RES1	0.000	
32	 C55	-26.960	25.860	-8.466	C.3	1	RES1	0.000	
33	 C56	-28.767	24.155	-8.923	C.2	1	RES1	0.000	
34	 C57	-29.651	24.388	-7.874	C.2	1	RES1	0.000	
35	 C58	-30.786	23.582	-7.815	C.2	1	RES1	0.000	
36	 C59	-31.023	22.624	-8.754	C.2	1	RES1	0.000	
37	 C60	-30.132	22.376	-9.795	C.2	1	RES1	0.000	
38	 C61	-28.952	23.171	-9.903	C.2	1	RES1	0.000	
@<TRIPOS>BOND
1 1 3 1
2 2 9 1
3 2 11 1
4 2 15 1
5 3 4 1
6 4 7 ar
7 4 25 ar
8 5 12 1
9 5 13 1
10 5 14 1
11 7 9 ar
12 11 12 1
13 14 15 1
14 8 16 1
15 9 16 ar
16 16 24 ar
17 17 25 1
18 17 26 1
19 6 18 2
20 8 18 1
21 18 20 1
22 19 26 ar
23 19 27 ar
24 20 22 1
25 21 31 ar
26 21 32 1
27 21 33 ar
28 10 22 1
29 23 26 ar
30 23 29 ar
31 24 25 ar
32 27 28 ar
33 28 29 ar
34 29 30 1
35 30 31 ar
36 30 38 ar
37 33 34 ar
38 33 38 ar
39 34 35 ar
40 35 36 ar
41 36 37 ar
42 37 38 ar
@<TRIPOS>SUBSTRUCTURE
1	RES1	1	GROUP	1 ****	RES
