# created with PyMOL 2.5.2
@<TRIPOS>MOLECULE
BRD4_4F3I_TargetProtein
29 32 1                 
SMALL
USER_CHARGES
@<TRIPOS>ATOM
1	 CL1	30.198	48.911	-7.038	Cl	1	RES1	0.000	
2	  C1	22.236	54.531	-5.101	C.3	1	RES1	0.000	
3	  N1	25.353	51.063	-2.914	N.2	1	RES1	0.000	
4	  O1	22.160	53.350	-4.292	O.3	1	RES1	0.000	
5	  S1	27.443	50.588	1.313	S.2	1	RES1	0.000	
6	  C2	23.271	53.155	-3.482	C.2	1	RES1	0.000	
7	  O2	24.262	53.885	-3.446	O.co2	1	RES1	0.000	
8	  C3	23.089	51.936	-2.640	C.3	1	RES1	0.000	
9	  O3	30.872	52.268	0.769	O.2	1	RES1	0.000	
10	  C4	24.365	51.555	-1.913	C.3	1	RES1	0.000	
11	  C5	26.587	50.837	-2.584	C.2	1	RES1	0.000	
12	  C6	27.492	50.365	-3.699	C.2	1	RES1	0.000	
13	  N6	25.137	50.070	-0.043	N.2	1	RES1	0.000	
14	  C7	27.342	50.853	-4.985	C.2	1	RES1	0.000	
15	  N7	23.209	49.135	0.518	N.2	1	RES1	0.000	
16	  C8	28.180	50.418	-6.002	C.2	1	RES1	0.000	
17	  N8	22.997	49.944	-0.548	N.2	1	RES1	0.000	
18	  C9	29.151	49.453	-5.750	C.2	1	RES1	0.000	
19	 C10	29.304	48.935	-4.478	C.2	1	RES1	0.000	
20	 C11	28.462	49.354	-3.450	C.2	1	RES1	0.000	
21	 C12	27.120	50.992	-1.238	C.2	1	RES1	0.000	
22	 C13	26.461	50.524	-0.117	C.2	1	RES1	0.000	
23	 C14	28.691	51.375	0.491	C.2	1	RES1	0.000	
24	 C15	29.882	51.746	1.230	C.2	1	RES1	0.000	
25	 C37	28.388	51.569	-0.855	C.2	1	RES1	0.000	
26	 C38	29.293	52.298	-1.804	C.3	1	RES1	0.000	
27	 C39	24.483	49.206	0.859	C.2	1	RES1	0.000	
28	 C40	25.110	48.427	1.919	C.3	1	RES1	0.000	
29	 C41	24.149	50.498	-0.879	C.2	1	RES1	0.000	
@<TRIPOS>BOND
1 1 18 1
2 2 4 1
3 3 10 1
4 3 11 2
5 4 6 1
6 5 22 ar
7 5 23 ar
8 6 8 1
9 6 7 2
10 8 10 1
11 10 29 1
12 11 12 1
13 12 14 ar
14 14 16 ar
15 15 17 ar
16 16 18 ar
17 18 19 ar
18 19 20 ar
19 12 20 ar
20 11 21 1
21 21 22 ar
22 21 25 ar
23 13 22 1
24 23 24 1
25 23 25 ar
26 9 24 2
27 25 26 1
28 13 27 ar
29 15 27 ar
30 27 28 1
31 13 29 ar
32 17 29 ar
@<TRIPOS>SUBSTRUCTURE
1	RES1	1	GROUP	1 ****	RES
