# created with PyMOL 2.5.2
@<TRIPOS>MOLECULE
EGFR_6XL4_TargetProtein
38 42 1                 
SMALL
USER_CHARGES
@<TRIPOS>ATOM
1	  C1	-31.810	17.082	-14.934	C.3	1	RES1	0.000	
2	  N1	-32.891	16.889	-9.890	N.pl3	1	RES1	0.000	
3	  O1	-30.869	17.965	-14.287	O.3	1	RES1	0.000	
4	  C2	-30.891	18.007	-12.876	C.2	1	RES1	0.000	
5	  N2	-34.619	15.761	-7.880	N.3	1	RES1	0.000	
6	  O2	-28.912	19.648	-8.313	O.2	1	RES1	0.000	
7	  C3	-31.904	17.412	-12.099	C.2	1	RES1	0.000	
8	  N3	-30.749	18.242	-8.676	N.pl3	1	RES1	0.000	
9	  C4	-31.850	17.486	-10.704	C.2	1	RES1	0.000	
10	  N4	-28.093	18.501	-4.883	N.3	1	RES1	0.000	
11	  C5	-33.456	17.756	-8.856	C.3	1	RES1	0.000	
12	  C6	-34.783	17.193	-8.335	C.3	1	RES1	0.000	
13	  C7	-35.899	15.226	-7.394	C.3	1	RES1	0.000	
14	  C8	-34.075	14.948	-8.991	C.3	1	RES1	0.000	
15	  C9	-32.750	15.468	-9.522	C.3	1	RES1	0.000	
16	 C10	-30.743	18.122	-10.092	C.2	1	RES1	0.000	
17	 N10	-28.790	19.185	-13.121	N.pl3	1	RES1	0.000	
18	 C11	-29.864	18.981	-7.901	C.2	1	RES1	0.000	
19	 N11	-27.189	20.702	-14.116	N.2	1	RES1	0.000	
20	 C12	-30.186	18.883	-6.441	C.3	1	RES1	0.000	
21	 N12	-27.416	24.705	-9.201	N.2	1	RES1	0.000	
22	 C13	-29.013	18.660	-5.584	C.3	1	RES1	0.000	
23	 N13	-28.220	21.165	-12.046	N.2	1	RES1	0.000	
24	 C47	-29.731	18.676	-10.901	C.2	1	RES1	0.000	
25	 C48	-29.774	18.643	-12.284	C.2	1	RES1	0.000	
26	 C49	-28.037	20.374	-13.108	C.2	1	RES1	0.000	
27	 C50	-26.533	21.852	-14.031	C.2	1	RES1	0.000	
28	 C51	-26.636	22.726	-12.948	C.2	1	RES1	0.000	
29	 C52	-27.543	22.334	-11.952	C.2	1	RES1	0.000	
30	 C53	-27.758	23.154	-10.779	C.2	1	RES1	0.000	
31	 C54	-26.886	24.105	-10.301	C.2	1	RES1	0.000	
32	 C55	-26.790	25.773	-8.426	C.3	1	RES1	0.000	
33	 C56	-28.674	24.182	-8.934	C.2	1	RES1	0.000	
34	 C57	-29.602	24.453	-7.929	C.2	1	RES1	0.000	
35	 C58	-30.796	23.764	-7.895	C.2	1	RES1	0.000	
36	 C59	-31.044	22.785	-8.844	C.2	1	RES1	0.000	
37	 C60	-30.123	22.510	-9.843	C.2	1	RES1	0.000	
38	 C61	-28.931	23.200	-9.868	C.2	1	RES1	0.000	
@<TRIPOS>BOND
1 1 3 1
2 2 9 1
3 2 11 1
4 2 15 1
5 3 4 1
6 4 7 ar
7 4 25 ar
8 5 12 1
9 5 13 1
10 5 14 1
11 7 9 ar
12 11 12 1
13 14 15 1
14 8 16 1
15 9 16 ar
16 16 24 ar
17 17 25 1
18 17 26 1
19 6 18 2
20 8 18 1
21 18 20 1
22 19 26 ar
23 19 27 ar
24 20 22 1
25 21 31 ar
26 21 32 1
27 21 33 ar
28 10 22 1
29 23 26 ar
30 23 29 ar
31 24 25 ar
32 27 28 ar
33 28 29 ar
34 29 30 1
35 30 31 ar
36 30 38 ar
37 33 34 ar
38 33 38 ar
39 34 35 ar
40 35 36 ar
41 36 37 ar
42 37 38 ar
@<TRIPOS>SUBSTRUCTURE
1	RES1	1	GROUP	1 ****	RES
