# created with PyMOL 2.5.2
@<TRIPOS>MOLECULE
EGFR_6XL4_TargetProtein
38 41 1                 
SMALL
USER_CHARGES
@<TRIPOS>ATOM
1	  C1	-31.725	17.043	-14.876	C.3	1	RES1	0.000	
2	  N1	-33.378	17.262	-10.040	N.pl3	1	RES1	0.000	
3	  O1	-30.821	17.927	-14.171	O.3	1	RES1	0.000	
4	  C2	-31.005	18.069	-12.793	C.2	1	RES1	0.000	
5	  N2	-34.073	14.308	-8.156	N.3	1	RES1	0.000	
6	  O2	-29.375	19.809	-8.153	O.2	1	RES1	0.000	
7	  C3	-32.116	17.589	-12.078	C.2	1	RES1	0.000	
8	  N3	-31.211	18.412	-8.604	N.pl3	1	RES1	0.000	
9	  C4	-32.224	17.742	-10.694	C.2	1	RES1	0.000	
10	  N4	-28.462	18.382	-4.880	N.3	1	RES1	0.000	
11	  C5	-34.032	18.120	-9.028	C.3	1	RES1	0.000	
12	  C6	-33.769	15.851	-10.181	C.3	1	RES1	0.000	
13	  C7	-34.685	15.355	-9.029	C.3	1	RES1	0.000	
14	  C8	-34.406	12.987	-8.732	C.3	1	RES1	0.000	
15	  C9	-34.491	14.383	-6.783	C.3	1	RES1	0.000	
16	 C10	-31.173	18.380	-10.009	C.2	1	RES1	0.000	
17	 N10	-28.836	19.184	-12.883	N.pl3	1	RES1	0.000	
18	 C11	-30.326	19.103	-7.794	C.2	1	RES1	0.000	
19	 N11	-27.157	20.480	-13.859	N.2	1	RES1	0.000	
20	 C12	-30.622	18.861	-6.312	C.3	1	RES1	0.000	
21	 N12	-27.032	25.064	-9.519	N.2	1	RES1	0.000	
22	 C13	-29.408	18.603	-5.543	C.3	1	RES1	0.000	
23	 N13	-28.173	21.263	-11.853	N.2	1	RES1	0.000	
24	 C48	-30.063	18.860	-10.737	C.2	1	RES1	0.000	
25	 C49	-29.961	18.722	-12.110	C.2	1	RES1	0.000	
26	 C50	-28.042	20.339	-12.848	C.2	1	RES1	0.000	
27	 C51	-26.377	21.578	-13.864	C.2	1	RES1	0.000	
28	 C52	-26.437	22.548	-12.921	C.2	1	RES1	0.000	
29	 C53	-27.386	22.362	-11.903	C.2	1	RES1	0.000	
30	 C54	-27.561	23.338	-10.838	C.2	1	RES1	0.000	
31	 C55	-26.599	24.286	-10.564	C.2	1	RES1	0.000	
32	 C56	-26.301	26.162	-8.929	C.3	1	RES1	0.000	
33	 C57	-28.280	24.620	-9.118	C.2	1	RES1	0.000	
34	 C58	-29.118	25.093	-8.089	C.2	1	RES1	0.000	
35	 C59	-30.341	24.450	-7.915	C.2	1	RES1	0.000	
36	 C60	-30.703	23.391	-8.723	C.2	1	RES1	0.000	
37	 C61	-29.887	22.931	-9.711	C.2	1	RES1	0.000	
38	 C62	-28.645	23.545	-9.941	C.2	1	RES1	0.000	
@<TRIPOS>BOND
1 1 3 1
2 2 9 1
3 2 11 1
4 2 12 1
5 3 4 1
6 4 7 ar
7 4 25 ar
8 5 13 1
9 5 14 1
10 5 15 1
11 7 9 ar
12 12 13 1
13 8 16 1
14 9 16 ar
15 16 24 ar
16 17 25 1
17 17 26 1
18 6 18 2
19 8 18 1
20 18 20 1
21 19 26 ar
22 19 27 ar
23 20 22 1
24 21 31 ar
25 21 32 1
26 21 33 ar
27 10 22 1
28 23 26 ar
29 23 29 ar
30 24 25 ar
31 27 28 ar
32 28 29 ar
33 29 30 1
34 30 31 ar
35 30 38 ar
36 33 34 ar
37 33 38 ar
38 34 35 ar
39 35 36 ar
40 36 37 ar
41 37 38 ar
@<TRIPOS>SUBSTRUCTURE
1	RES1	1	GROUP	1 ****	RES
