# created with PyMOL 2.5.2
@<TRIPOS>MOLECULE
EGFR_6XL4_TargetProtein
38 41 1                 
SMALL
USER_CHARGES
@<TRIPOS>ATOM
1	  C1	-31.916	17.237	-14.881	C.3	1	RES1	0.000	
2	  N1	-33.414	17.277	-9.967	N.pl3	1	RES1	0.000	
3	  O1	-30.981	18.068	-14.178	O.3	1	RES1	0.000	
4	  C2	-31.104	18.143	-12.779	C.2	1	RES1	0.000	
5	  N2	-34.048	14.215	-8.276	N.3	1	RES1	0.000	
6	  O2	-29.459	19.722	-8.028	O.2	1	RES1	0.000	
7	  C3	-32.215	17.638	-12.082	C.2	1	RES1	0.000	
8	  N3	-31.271	18.391	-8.565	N.pl3	1	RES1	0.000	
9	  C4	-32.290	17.765	-10.694	C.2	1	RES1	0.000	
10	  N4	-28.723	18.250	-4.725	N.3	1	RES1	0.000	
11	  C5	-34.455	18.251	-9.749	C.3	1	RES1	0.000	
12	  C6	-33.830	15.869	-10.175	C.3	1	RES1	0.000	
13	  C7	-34.700	15.341	-9.036	C.3	1	RES1	0.000	
14	  C8	-34.389	14.349	-6.829	C.3	1	RES1	0.000	
15	  C9	-32.579	14.222	-8.441	C.3	1	RES1	0.000	
16	 C10	-31.185	18.347	-9.997	C.2	1	RES1	0.000	
17	 N10	-28.911	19.165	-12.849	N.pl3	1	RES1	0.000	
18	 C11	-30.408	19.041	-7.704	C.2	1	RES1	0.000	
19	 N11	-27.177	20.357	-13.835	N.2	1	RES1	0.000	
20	 C12	-30.787	18.807	-6.256	C.3	1	RES1	0.000	
21	 N12	-27.048	24.985	-9.500	N.2	1	RES1	0.000	
22	 C13	-29.658	18.511	-5.450	C.3	1	RES1	0.000	
23	 N13	-28.170	21.230	-11.850	N.2	1	RES1	0.000	
24	 C48	-30.114	18.810	-10.727	C.2	1	RES1	0.000	
25	 C49	-30.033	18.716	-12.094	C.2	1	RES1	0.000	
26	 C50	-28.081	20.281	-12.816	C.2	1	RES1	0.000	
27	 C51	-26.363	21.434	-13.863	C.2	1	RES1	0.000	
28	 C52	-26.410	22.447	-12.915	C.2	1	RES1	0.000	
29	 C53	-27.350	22.286	-11.920	C.2	1	RES1	0.000	
30	 C54	-27.526	23.273	-10.860	C.2	1	RES1	0.000	
31	 C55	-26.580	24.226	-10.545	C.2	1	RES1	0.000	
32	 C56	-26.297	26.067	-8.891	C.3	1	RES1	0.000	
33	 C57	-28.276	24.528	-9.112	C.2	1	RES1	0.000	
34	 C58	-29.136	24.999	-8.083	C.2	1	RES1	0.000	
35	 C59	-30.350	24.354	-7.920	C.2	1	RES1	0.000	
36	 C60	-30.727	23.333	-8.740	C.2	1	RES1	0.000	
37	 C61	-29.860	22.867	-9.742	C.2	1	RES1	0.000	
38	 C62	-28.638	23.467	-9.951	C.2	1	RES1	0.000	
@<TRIPOS>BOND
1 1 3 1
2 2 9 1
3 2 11 1
4 2 12 1
5 3 4 1
6 4 7 ar
7 4 25 ar
8 5 13 1
9 5 14 1
10 5 15 1
11 7 9 ar
12 12 13 1
13 8 16 1
14 9 16 ar
15 16 24 ar
16 17 25 1
17 17 26 1
18 6 18 2
19 8 18 1
20 18 20 1
21 19 26 ar
22 19 27 ar
23 20 22 1
24 21 31 ar
25 21 32 1
26 21 33 ar
27 10 22 1
28 23 26 ar
29 23 29 ar
30 24 25 ar
31 27 28 ar
32 28 29 ar
33 29 30 1
34 30 31 ar
35 30 38 ar
36 33 34 ar
37 33 38 ar
38 34 35 ar
39 35 36 ar
40 36 37 ar
41 37 38 ar
@<TRIPOS>SUBSTRUCTURE
1	RES1	1	GROUP	1 ****	RES
