# created with PyMOL 2.5.2
@<TRIPOS>MOLECULE
EGFR_5X26_TargetProtein
37 41 1                 
SMALL
USER_CHARGES
@<TRIPOS>ATOM
1	  N2	-51.963	-0.544	-22.893	N.2	1	RES1	0.000	
2	  N3	-51.860	-0.689	-25.280	N.pl3	1	RES1	0.000	
3	  N4	-53.399	0.710	-24.046	N.2	1	RES1	0.000	
4	  C5	-50.056	-1.028	-21.367	C.3	1	RES1	0.000	
5	  N5	-54.334	1.786	-20.630	N.2	1	RES1	0.000	
6	  C6	-50.903	-1.509	-22.549	C.3	1	RES1	0.000	
7	  N6	-53.463	1.129	-18.609	N.pl3	1	RES1	0.000	
8	  C7	-52.423	-0.171	-24.140	C.2	1	RES1	0.000	
9	  N7	-50.341	-0.952	-14.287	N.pl3	1	RES1	0.000	
10	  C8	-52.044	-0.269	-26.640	C.2	1	RES1	0.000	
11	  N8	-48.911	-2.104	-11.956	N.3	1	RES1	0.000	
12	  C9	-51.883	-1.227	-27.652	C.2	1	RES1	0.000	
13	 C10	-51.987	-0.866	-29.006	C.2	1	RES1	0.000	
14	 C11	-52.263	0.434	-29.358	C.2	1	RES1	0.000	
15	 C12	-52.413	1.408	-28.374	C.2	1	RES1	0.000	
16	 C13	-52.289	1.056	-27.029	C.2	1	RES1	0.000	
17	 N13	-52.561	0.180	-20.637	N.2	1	RES1	0.000	
18	 C14	-53.550	0.941	-22.706	C.2	1	RES1	0.000	
19	 C15	-54.416	1.754	-21.998	C.2	1	RES1	0.000	
20	 C16	-53.445	1.017	-19.998	C.2	1	RES1	0.000	
21	 C17	-52.668	0.571	-17.562	C.2	1	RES1	0.000	
22	 C18	-51.700	-0.417	-17.756	C.2	1	RES1	0.000	
23	 C19	-50.941	-0.915	-16.698	C.2	1	RES1	0.000	
24	 C20	-51.114	-0.431	-15.372	C.2	1	RES1	0.000	
25	 C21	-50.634	-0.533	-12.892	C.3	1	RES1	0.000	
26	 C22	-49.417	-0.704	-12.026	C.3	1	RES1	0.000	
27	 C23	-47.566	-2.182	-11.357	C.3	1	RES1	0.000	
28	 C24	-47.165	-3.572	-10.839	C.3	1	RES1	0.000	
29	 C25	-48.132	-4.135	-9.773	C.3	1	RES1	0.000	
30	 C26	-47.792	-5.532	-9.306	C.3	1	RES1	0.000	
31	 C27	-46.483	-5.641	-8.570	C.3	1	RES1	0.000	
32	 C52	-49.032	-2.817	-13.265	C.3	1	RES1	0.000	
33	 C53	-49.222	-1.874	-14.498	C.3	1	RES1	0.000	
34	 C54	-52.082	0.550	-15.197	C.2	1	RES1	0.000	
35	 C55	-52.827	1.067	-16.257	C.2	1	RES1	0.000	
36	 C56	-52.668	0.179	-21.955	C.2	1	RES1	0.000	
37	 C57	-51.449	-2.887	-22.314	C.3	1	RES1	0.000	
@<TRIPOS>BOND
1 1 6 1
2 1 8 ar
3 1 36 ar
4 2 8 1
5 2 10 1
6 3 8 ar
7 4 6 1
8 10 12 ar
9 12 13 ar
10 13 14 ar
11 14 15 ar
12 15 16 ar
13 10 16 ar
14 17 20 ar
15 17 36 ar
16 3 18 ar
17 18 19 ar
18 18 36 ar
19 5 19 ar
20 5 20 ar
21 7 20 1
22 7 21 1
23 21 22 ar
24 21 35 ar
25 22 23 ar
26 23 24 ar
27 9 24 1
28 24 34 ar
29 9 25 1
30 25 26 1
31 11 26 1
32 11 27 1
33 27 28 1
34 28 29 1
35 29 30 1
36 30 31 1
37 11 32 1
38 32 33 1
39 9 33 1
40 34 35 ar
41 6 37 1
@<TRIPOS>SUBSTRUCTURE
1	RES1	1	GROUP	1 ****	RES
