# created with PyMOL 2.5.2
@<TRIPOS>MOLECULE
EGFR_5X26_TargetProtein
37 41 1                 
SMALL
USER_CHARGES
@<TRIPOS>ATOM
1	  N2	-51.997	-0.377	-22.558	N.2	1	RES1	0.000	
2	  N3	-51.722	-0.701	-24.919	N.pl3	1	RES1	0.000	
3	  N4	-53.395	0.728	-23.912	N.2	1	RES1	0.000	
4	  C5	-51.383	-2.687	-21.780	C.3	1	RES1	0.000	
5	  N5	-54.663	1.918	-20.649	N.2	1	RES1	0.000	
6	  C6	-50.912	-1.236	-22.054	C.3	1	RES1	0.000	
7	  N6	-53.796	1.302	-18.508	N.pl3	1	RES1	0.000	
8	  C7	-52.389	-0.121	-23.874	C.2	1	RES1	0.000	
9	  N7	-50.359	-0.965	-14.558	N.pl3	1	RES1	0.000	
10	  C8	-51.819	-0.391	-26.331	C.2	1	RES1	0.000	
11	  N8	-48.379	-2.013	-12.648	N.3	1	RES1	0.000	
12	  C9	-51.644	-1.431	-27.244	C.2	1	RES1	0.000	
13	 C10	-51.710	-1.202	-28.628	C.2	1	RES1	0.000	
14	 C11	-51.931	0.079	-29.093	C.2	1	RES1	0.000	
15	 C12	-52.123	1.140	-28.199	C.2	1	RES1	0.000	
16	 C13	-52.072	0.897	-26.811	C.2	1	RES1	0.000	
17	 N13	-52.803	0.417	-20.416	N.2	1	RES1	0.000	
18	 C14	-53.671	1.012	-22.602	C.2	1	RES1	0.000	
19	 C15	-54.625	1.832	-22.005	C.2	1	RES1	0.000	
20	 C16	-53.774	1.230	-19.895	C.2	1	RES1	0.000	
21	 C17	-52.964	0.783	-17.486	C.2	1	RES1	0.000	
22	 C18	-53.055	1.082	-16.127	C.2	1	RES1	0.000	
23	 C19	-52.216	0.544	-15.186	C.2	1	RES1	0.000	
24	 C20	-51.222	-0.397	-15.514	C.2	1	RES1	0.000	
25	 C21	-49.287	-1.909	-14.999	C.3	1	RES1	0.000	
26	 C22	-48.826	-2.802	-13.835	C.3	1	RES1	0.000	
27	 C23	-47.876	-2.906	-11.602	C.3	1	RES1	0.000	
28	 C24	-47.224	-2.183	-10.417	C.3	1	RES1	0.000	
29	 C25	-46.067	-1.281	-10.839	C.3	1	RES1	0.000	
30	 C26	-45.381	-0.651	-9.629	C.3	1	RES1	0.000	
31	 C27	-44.230	0.250	-10.029	C.3	1	RES1	0.000	
32	 C52	-49.547	-1.185	-12.208	C.3	1	RES1	0.000	
33	 C53	-50.085	-0.252	-13.294	C.3	1	RES1	0.000	
34	 C54	-51.138	-0.728	-16.884	C.2	1	RES1	0.000	
35	 C55	-51.963	-0.145	-17.820	C.2	1	RES1	0.000	
36	 C56	-52.839	0.342	-21.757	C.2	1	RES1	0.000	
37	 C57	-49.641	-1.197	-22.908	C.3	1	RES1	0.000	
@<TRIPOS>BOND
1 1 6 1
2 1 8 ar
3 1 36 ar
4 2 8 1
5 2 10 1
6 3 8 ar
7 4 6 1
8 10 12 ar
9 12 13 ar
10 13 14 ar
11 14 15 ar
12 15 16 ar
13 10 16 ar
14 17 20 ar
15 17 36 ar
16 3 18 ar
17 18 19 ar
18 18 36 ar
19 5 19 ar
20 5 20 ar
21 7 20 1
22 7 21 1
23 21 22 ar
24 21 35 ar
25 22 23 ar
26 23 24 ar
27 9 24 1
28 24 34 ar
29 9 25 1
30 25 26 1
31 11 26 1
32 11 27 1
33 27 28 1
34 28 29 1
35 29 30 1
36 30 31 1
37 11 32 1
38 32 33 1
39 9 33 1
40 34 35 ar
41 6 37 1
@<TRIPOS>SUBSTRUCTURE
1	RES1	1	GROUP	1 ****	RES
