# created with PyMOL 2.5.2
@<TRIPOS>MOLECULE
EGFR_5X26_TargetProtein
37 41 1                 
SMALL
USER_CHARGES
@<TRIPOS>ATOM
1	  N2	-52.004	-0.355	-22.505	N.2	1	RES1	0.000	
2	  N3	-51.691	-0.725	-24.852	N.pl3	1	RES1	0.000	
3	  N4	-53.354	0.744	-23.860	N.2	1	RES1	0.000	
4	  N5	-54.684	2.014	-20.664	N.2	1	RES1	0.000	
5	  C6	-51.462	-2.637	-21.636	C.3	1	RES1	0.000	
6	  N6	-53.850	1.435	-18.487	N.pl3	1	RES1	0.000	
7	  C7	-50.963	-1.243	-21.918	C.3	1	RES1	0.000	
8	  N7	-50.349	-0.965	-14.652	N.pl3	1	RES1	0.000	
9	  C8	-52.368	-0.113	-23.809	C.2	1	RES1	0.000	
10	  N8	-48.665	-2.435	-12.802	N.3	1	RES1	0.000	
11	  C9	-51.751	-0.457	-26.233	C.2	1	RES1	0.000	
12	 C10	-51.979	0.831	-26.785	C.2	1	RES1	0.000	
13	 C11	-52.009	1.045	-28.155	C.2	1	RES1	0.000	
14	 C12	-51.863	-0.028	-28.999	C.2	1	RES1	0.000	
15	 C13	-51.664	-1.307	-28.539	C.2	1	RES1	0.000	
16	 N13	-52.855	0.493	-20.363	N.2	1	RES1	0.000	
17	 C14	-51.623	-1.506	-27.121	C.2	1	RES1	0.000	
18	 C15	-53.662	1.070	-22.574	C.2	1	RES1	0.000	
19	 C16	-54.624	1.904	-22.002	C.2	1	RES1	0.000	
20	 C17	-53.823	1.335	-19.883	C.2	1	RES1	0.000	
21	 C18	-53.005	0.883	-17.466	C.2	1	RES1	0.000	
22	 C19	-52.119	-0.123	-17.878	C.2	1	RES1	0.000	
23	 C20	-51.239	-0.728	-16.952	C.2	1	RES1	0.000	
24	 C21	-51.248	-0.359	-15.595	C.2	1	RES1	0.000	
25	 C22	-49.425	-2.009	-15.139	C.3	1	RES1	0.000	
26	 C23	-48.223	-2.200	-14.154	C.3	1	RES1	0.000	
27	 C24	-47.502	-2.627	-11.873	C.3	1	RES1	0.000	
28	 C25	-46.751	-3.953	-12.102	C.3	1	RES1	0.000	
29	 C26	-47.591	-5.204	-12.097	C.3	1	RES1	0.000	
30	 C27	-48.345	-5.463	-10.785	C.3	1	RES1	0.000	
31	 C28	-49.077	-6.791	-10.800	C.3	1	RES1	0.000	
32	 C53	-49.489	-1.268	-12.351	C.3	1	RES1	0.000	
33	 C54	-50.701	-1.063	-13.222	C.3	1	RES1	0.000	
34	 C55	-52.122	0.655	-15.219	C.2	1	RES1	0.000	
35	 C56	-52.989	1.252	-16.156	C.2	1	RES1	0.000	
36	 C57	-52.829	0.385	-21.699	C.2	1	RES1	0.000	
37	 C58	-49.692	-1.237	-22.758	C.3	1	RES1	0.000	
@<TRIPOS>BOND
1 1 7 1
2 1 9 ar
3 1 36 ar
4 2 9 1
5 2 11 1
6 3 9 ar
7 5 7 1
8 11 12 ar
9 12 13 ar
10 13 14 ar
11 14 15 ar
12 15 17 ar
13 16 20 ar
14 16 36 ar
15 11 17 ar
16 3 18 ar
17 18 19 ar
18 18 36 ar
19 4 19 ar
20 4 20 ar
21 6 20 1
22 6 21 1
23 21 22 ar
24 21 35 ar
25 22 23 ar
26 23 24 ar
27 8 24 1
28 24 34 ar
29 8 25 1
30 25 26 1
31 10 26 1
32 10 27 1
33 27 28 1
34 28 29 1
35 29 30 1
36 30 31 1
37 10 32 1
38 32 33 1
39 8 33 1
40 34 35 ar
41 7 37 1
@<TRIPOS>SUBSTRUCTURE
1	RES1	1	GROUP	1 ****	RES
