# created with PyMOL 2.5.2
@<TRIPOS>MOLECULE
EGFR_5X26_TargetProtein
37 41 1                 
SMALL
USER_CHARGES
@<TRIPOS>ATOM
1	  N2	-51.971	-0.381	-22.634	N.2	1	RES1	0.000	
2	  N3	-51.742	-0.731	-25.006	N.pl3	1	RES1	0.000	
3	  N4	-53.368	0.732	-23.960	N.2	1	RES1	0.000	
4	  N5	-54.592	1.958	-20.724	N.2	1	RES1	0.000	
5	  C6	-50.177	-0.728	-20.941	C.3	1	RES1	0.000	
6	  N6	-53.711	1.333	-18.556	N.pl3	1	RES1	0.000	
7	  C7	-50.892	-1.282	-22.158	C.3	1	RES1	0.000	
8	  N7	-50.280	-1.018	-14.617	N.pl3	1	RES1	0.000	
9	  C8	-52.376	-0.124	-23.944	C.2	1	RES1	0.000	
10	  N8	-48.464	-2.017	-12.601	N.3	1	RES1	0.000	
11	  C9	-51.840	-0.437	-26.384	C.2	1	RES1	0.000	
12	 C10	-52.071	0.864	-26.923	C.2	1	RES1	0.000	
13	 C11	-52.174	1.076	-28.276	C.2	1	RES1	0.000	
14	 C12	-52.039	0.043	-29.172	C.2	1	RES1	0.000	
15	 C13	-51.832	-1.246	-28.690	C.2	1	RES1	0.000	
16	 N13	-52.775	0.433	-20.478	N.2	1	RES1	0.000	
17	 C14	-51.754	-1.472	-27.327	C.2	1	RES1	0.000	
18	 C15	-53.621	1.034	-22.675	C.2	1	RES1	0.000	
19	 C16	-54.565	1.862	-22.056	C.2	1	RES1	0.000	
20	 C17	-53.713	1.259	-19.958	C.2	1	RES1	0.000	
21	 C18	-52.884	0.792	-17.558	C.2	1	RES1	0.000	
22	 C19	-51.971	-0.213	-17.886	C.2	1	RES1	0.000	
23	 C20	-51.144	-0.795	-16.938	C.2	1	RES1	0.000	
24	 C21	-51.148	-0.408	-15.594	C.2	1	RES1	0.000	
25	 C22	-50.400	-0.545	-13.218	C.3	1	RES1	0.000	
26	 C23	-49.803	-1.597	-12.230	C.3	1	RES1	0.000	
27	 C24	-47.913	-2.976	-11.606	C.3	1	RES1	0.000	
28	 C25	-46.417	-3.302	-11.767	C.3	1	RES1	0.000	
29	 C26	-45.539	-2.089	-11.723	C.3	1	RES1	0.000	
30	 C27	-44.051	-2.482	-11.806	C.3	1	RES1	0.000	
31	 C28	-43.134	-1.248	-11.761	C.3	1	RES1	0.000	
32	 C53	-48.473	-2.575	-13.979	C.3	1	RES1	0.000	
33	 C54	-49.006	-1.585	-15.020	C.3	1	RES1	0.000	
34	 C55	-52.063	0.590	-15.249	C.2	1	RES1	0.000	
35	 C56	-52.887	1.179	-16.207	C.2	1	RES1	0.000	
36	 C57	-52.783	0.348	-21.813	C.2	1	RES1	0.000	
37	 C58	-51.392	-2.710	-21.922	C.3	1	RES1	0.000	
@<TRIPOS>BOND
1 1 7 1
2 1 9 ar
3 1 36 ar
4 2 9 1
5 2 11 1
6 3 9 ar
7 5 7 1
8 11 12 ar
9 12 13 ar
10 13 14 ar
11 14 15 ar
12 15 17 ar
13 16 20 ar
14 16 36 ar
15 11 17 ar
16 3 18 ar
17 18 19 ar
18 18 36 ar
19 4 19 ar
20 4 20 ar
21 6 20 1
22 6 21 1
23 21 22 ar
24 21 35 ar
25 22 23 ar
26 23 24 ar
27 8 24 1
28 24 34 ar
29 8 25 1
30 25 26 1
31 10 26 1
32 10 27 1
33 27 28 1
34 28 29 1
35 29 30 1
36 30 31 1
37 10 32 1
38 32 33 1
39 8 33 1
40 34 35 ar
41 7 37 1
@<TRIPOS>SUBSTRUCTURE
1	RES1	1	GROUP	1 ****	RES
