# created with PyMOL 2.5.2
@<TRIPOS>MOLECULE
EGFR_5X26_TargetProtein
37 41 1                 
SMALL
USER_CHARGES
@<TRIPOS>ATOM
1	  N2	-51.931	-0.532	-22.889	N.2	1	RES1	0.000	
2	  N3	-51.846	-0.695	-25.288	N.pl3	1	RES1	0.000	
3	  N4	-53.389	0.692	-24.058	N.2	1	RES1	0.000	
4	  N5	-54.346	1.774	-20.646	N.2	1	RES1	0.000	
5	  C6	-50.038	-1.043	-21.343	C.3	1	RES1	0.000	
6	  N6	-53.448	1.125	-18.613	N.pl3	1	RES1	0.000	
7	  C7	-50.890	-1.494	-22.559	C.3	1	RES1	0.000	
8	  N7	-50.307	-0.909	-14.297	N.pl3	1	RES1	0.000	
9	  C8	-52.401	-0.196	-24.151	C.2	1	RES1	0.000	
10	  N8	-48.922	-2.102	-12.046	N.3	1	RES1	0.000	
11	  C9	-52.012	-0.278	-26.639	C.2	1	RES1	0.000	
12	 C10	-52.279	1.074	-27.015	C.2	1	RES1	0.000	
13	 C11	-52.435	1.427	-28.368	C.2	1	RES1	0.000	
14	 C12	-52.326	0.439	-29.348	C.2	1	RES1	0.000	
15	 C13	-52.078	-0.858	-28.990	C.2	1	RES1	0.000	
16	 N13	-52.557	0.193	-20.631	N.2	1	RES1	0.000	
17	 C14	-51.921	-1.212	-27.654	C.2	1	RES1	0.000	
18	 C15	-53.543	0.933	-22.710	C.2	1	RES1	0.000	
19	 C16	-54.410	1.746	-22.002	C.2	1	RES1	0.000	
20	 C17	-53.429	1.006	-20.021	C.2	1	RES1	0.000	
21	 C18	-52.656	0.593	-17.577	C.2	1	RES1	0.000	
22	 C19	-52.861	1.044	-16.269	C.2	1	RES1	0.000	
23	 C20	-52.094	0.555	-15.199	C.2	1	RES1	0.000	
24	 C21	-51.086	-0.421	-15.386	C.2	1	RES1	0.000	
25	 C22	-50.613	-0.499	-12.920	C.3	1	RES1	0.000	
26	 C23	-49.421	-0.719	-11.978	C.3	1	RES1	0.000	
27	 C24	-47.795	-2.315	-11.065	C.3	1	RES1	0.000	
28	 C25	-47.355	-3.764	-10.888	C.3	1	RES1	0.000	
29	 C26	-48.468	-4.751	-10.509	C.3	1	RES1	0.000	
30	 C27	-49.259	-4.436	-9.258	C.3	1	RES1	0.000	
31	 C28	-48.415	-4.363	-8.011	C.3	1	RES1	0.000	
32	 C54	-48.508	-2.443	-13.436	C.3	1	RES1	0.000	
33	 C55	-49.680	-2.255	-14.415	C.3	1	RES1	0.000	
34	 C56	-50.897	-0.869	-16.690	C.2	1	RES1	0.000	
35	 C57	-51.636	-0.373	-17.760	C.2	1	RES1	0.000	
36	 C58	-52.669	0.191	-21.972	C.2	1	RES1	0.000	
37	 C59	-51.399	-2.916	-22.368	C.3	1	RES1	0.000	
@<TRIPOS>BOND
1 1 7 1
2 1 9 ar
3 1 36 ar
4 2 9 1
5 2 11 1
6 3 9 ar
7 5 7 1
8 11 12 ar
9 12 13 ar
10 13 14 ar
11 14 15 ar
12 15 17 ar
13 16 20 ar
14 16 36 ar
15 11 17 ar
16 3 18 ar
17 18 19 ar
18 18 36 ar
19 4 19 ar
20 4 20 ar
21 6 20 1
22 6 21 1
23 21 22 ar
24 21 35 ar
25 22 23 ar
26 23 24 ar
27 8 24 1
28 24 34 ar
29 8 25 1
30 25 26 1
31 10 26 1
32 10 27 1
33 27 28 1
34 28 29 1
35 29 30 1
36 30 31 1
37 10 32 1
38 32 33 1
39 8 33 1
40 34 35 ar
41 7 37 1
@<TRIPOS>SUBSTRUCTURE
1	RES1	1	GROUP	1 ****	RES
