# created with PyMOL 2.5.2
@<TRIPOS>MOLECULE
EGFR_5X26_TargetProtein
37 41 1                 
SMALL
USER_CHARGES
@<TRIPOS>ATOM
1	  N2	-51.953	-0.494	-22.852	N.2	1	RES1	0.000	
2	  N3	-51.870	-0.683	-25.243	N.pl3	1	RES1	0.000	
3	  N4	-53.388	0.730	-23.995	N.2	1	RES1	0.000	
4	  N5	-54.347	1.803	-20.570	N.2	1	RES1	0.000	
5	  C6	-51.356	-2.849	-22.232	C.3	1	RES1	0.000	
6	  N6	-53.444	1.121	-18.568	N.pl3	1	RES1	0.000	
7	  C7	-50.854	-1.438	-22.476	C.3	1	RES1	0.000	
8	  N7	-50.338	-0.954	-14.219	N.pl3	1	RES1	0.000	
9	  C8	-52.410	-0.154	-24.096	C.2	1	RES1	0.000	
10	  N8	-48.695	-1.760	-11.985	N.3	1	RES1	0.000	
11	  C9	-52.043	-0.271	-26.579	C.2	1	RES1	0.000	
12	 C10	-52.294	1.051	-26.990	C.2	1	RES1	0.000	
13	 C11	-52.438	1.393	-28.328	C.2	1	RES1	0.000	
14	 C12	-52.345	0.403	-29.311	C.2	1	RES1	0.000	
15	 C13	-52.112	-0.936	-28.919	C.2	1	RES1	0.000	
16	 N13	-52.549	0.198	-20.592	N.2	1	RES1	0.000	
17	 C14	-51.954	-1.238	-27.604	C.2	1	RES1	0.000	
18	 C15	-53.579	0.970	-22.674	C.2	1	RES1	0.000	
19	 C16	-54.415	1.791	-21.950	C.2	1	RES1	0.000	
20	 C17	-53.411	1.022	-19.961	C.2	1	RES1	0.000	
21	 C18	-52.641	0.574	-17.520	C.2	1	RES1	0.000	
22	 C19	-52.798	1.083	-16.222	C.2	1	RES1	0.000	
23	 C20	-52.063	0.570	-15.162	C.2	1	RES1	0.000	
24	 C21	-51.092	-0.440	-15.298	C.2	1	RES1	0.000	
25	 C22	-50.604	-0.392	-12.880	C.3	1	RES1	0.000	
26	 C23	-50.112	-1.340	-11.763	C.3	1	RES1	0.000	
27	 C24	-48.196	-2.641	-10.889	C.3	1	RES1	0.000	
28	 C25	-48.093	-2.003	-9.517	C.3	1	RES1	0.000	
29	 C26	-47.172	-0.770	-9.532	C.3	1	RES1	0.000	
30	 C27	-47.018	-0.183	-8.102	C.3	1	RES1	0.000	
31	 C28	-46.085	1.013	-8.090	C.3	1	RES1	0.000	
32	 C54	-48.559	-2.394	-13.295	C.3	1	RES1	0.000	
33	 C55	-48.991	-1.510	-14.460	C.3	1	RES1	0.000	
34	 C56	-50.941	-0.942	-16.635	C.2	1	RES1	0.000	
35	 C57	-51.706	-0.442	-17.687	C.2	1	RES1	0.000	
36	 C58	-52.664	0.202	-21.916	C.2	1	RES1	0.000	
37	 C59	-49.660	-1.373	-23.432	C.3	1	RES1	0.000	
@<TRIPOS>BOND
1 1 7 1
2 1 9 ar
3 1 36 ar
4 2 9 1
5 2 11 1
6 3 9 ar
7 5 7 1
8 11 12 ar
9 12 13 ar
10 13 14 ar
11 14 15 ar
12 15 17 ar
13 16 20 ar
14 16 36 ar
15 11 17 ar
16 3 18 ar
17 18 19 ar
18 18 36 ar
19 4 19 ar
20 4 20 ar
21 6 20 1
22 6 21 1
23 21 22 ar
24 21 35 ar
25 22 23 ar
26 23 24 ar
27 8 24 1
28 24 34 ar
29 8 25 1
30 25 26 1
31 10 26 1
32 10 27 1
33 27 28 1
34 28 29 1
35 29 30 1
36 30 31 1
37 10 32 1
38 32 33 1
39 8 33 1
40 34 35 ar
41 7 37 1
@<TRIPOS>SUBSTRUCTURE
1	RES1	1	GROUP	1 ****	RES
