# created with PyMOL 2.5.2
@<TRIPOS>MOLECULE
EGFR_5X26_TargetProtein
40 44 1                 
SMALL
USER_CHARGES
@<TRIPOS>ATOM
1	  N2	-51.931	-0.537	-22.919	N.2	1	RES1	0.000	
2	  O2	-46.597	-4.387	-10.880	O.2	1	RES1	0.000	
3	  N3	-51.857	-0.683	-25.303	N.pl3	1	RES1	0.000	
4	  N4	-53.396	0.692	-24.043	N.2	1	RES1	0.000	
5	  N5	-54.361	1.742	-20.637	N.2	1	RES1	0.000	
6	  C6	-50.024	-1.021	-21.399	C.3	1	RES1	0.000	
7	  N6	-53.455	1.093	-18.622	N.pl3	1	RES1	0.000	
8	  C7	-50.860	-1.483	-22.581	C.3	1	RES1	0.000	
9	  N7	-50.313	-0.940	-14.291	N.pl3	1	RES1	0.000	
10	  C8	-52.422	-0.174	-24.172	C.2	1	RES1	0.000	
11	  N8	-48.577	-1.803	-12.110	N.3	1	RES1	0.000	
12	  C9	-52.044	-0.249	-26.635	C.2	1	RES1	0.000	
13	  N9	-45.818	-2.259	-11.336	N.pl3	1	RES1	0.000	
14	 C10	-52.299	1.083	-27.018	C.2	1	RES1	0.000	
15	 C11	-52.435	1.427	-28.369	C.2	1	RES1	0.000	
16	 C12	-52.357	0.454	-29.376	C.2	1	RES1	0.000	
17	 C13	-52.083	-0.862	-29.015	C.2	1	RES1	0.000	
18	 C14	-51.913	-1.213	-27.665	C.2	1	RES1	0.000	
19	 N14	-52.552	0.178	-20.635	N.2	1	RES1	0.000	
20	 C15	-53.580	0.904	-22.714	C.2	1	RES1	0.000	
21	 C16	-54.426	1.751	-21.982	C.2	1	RES1	0.000	
22	 C17	-53.446	0.972	-20.010	C.2	1	RES1	0.000	
23	 C18	-52.642	0.553	-17.577	C.2	1	RES1	0.000	
24	 C19	-51.666	-0.408	-17.772	C.2	1	RES1	0.000	
25	 C20	-50.888	-0.882	-16.700	C.2	1	RES1	0.000	
26	 C21	-51.097	-0.438	-15.371	C.2	1	RES1	0.000	
27	 C22	-49.197	-1.880	-14.524	C.3	1	RES1	0.000	
28	 C23	-48.817	-2.671	-13.288	C.3	1	RES1	0.000	
29	 C24	-48.194	-2.570	-10.907	C.3	1	RES1	0.000	
30	 C25	-46.799	-3.172	-11.059	C.2	1	RES1	0.000	
31	 C26	-44.424	-2.606	-11.484	C.3	1	RES1	0.000	
32	 C27	-43.706	-2.645	-10.129	C.3	1	RES1	0.000	
33	 C28	-42.225	-2.979	-10.285	C.3	1	RES1	0.000	
34	 C29	-41.501	-3.020	-8.966	C.3	1	RES1	0.000	
35	 C54	-49.814	-0.999	-11.838	C.3	1	RES1	0.000	
36	 C55	-50.199	-0.154	-13.050	C.3	1	RES1	0.000	
37	 C56	-52.086	0.503	-15.211	C.2	1	RES1	0.000	
38	 C57	-52.838	0.994	-16.253	C.2	1	RES1	0.000	
39	 C58	-52.671	0.177	-21.972	C.2	1	RES1	0.000	
40	 C59	-51.386	-2.898	-22.343	C.3	1	RES1	0.000	
@<TRIPOS>BOND
1 1 8 1
2 1 10 ar
3 1 39 ar
4 2 30 2
5 3 10 1
6 3 12 1
7 4 10 ar
8 6 8 1
9 12 14 ar
10 14 15 ar
11 15 16 ar
12 16 17 ar
13 17 18 ar
14 12 18 ar
15 19 22 ar
16 19 39 ar
17 4 20 ar
18 20 21 ar
19 20 39 ar
20 5 21 ar
21 5 22 ar
22 7 22 1
23 7 23 1
24 23 24 ar
25 23 38 ar
26 24 25 ar
27 25 26 ar
28 9 26 1
29 26 37 ar
30 9 27 1
31 27 28 1
32 11 28 1
33 11 29 1
34 29 30 1
35 13 30 1
36 13 31 1
37 31 32 1
38 32 33 1
39 33 34 1
40 11 35 1
41 35 36 1
42 9 36 1
43 37 38 ar
44 8 40 1
@<TRIPOS>SUBSTRUCTURE
1	RES1	1	GROUP	1 ****	RES
