# created with PyMOL 2.5.2
@<TRIPOS>MOLECULE
BRD4_6YQN_TargetProtein
24 27 1                 
SMALL
USER_CHARGES
@<TRIPOS>ATOM
1	 CL1	25.735	17.885	-6.979	Cl	1	RES1	0.000	
2	  C1	26.019	15.102	1.273	C.3	1	RES1	0.000	
3	  N1	30.768	16.811	0.013	N.2	1	RES1	0.000	
4	  S1	28.501	16.312	1.361	S.2	1	RES1	0.000	
5	  C2	27.235	15.505	0.514	C.2	1	RES1	0.000	
6	  N2	32.709	17.780	0.537	N.2	1	RES1	0.000	
7	  C3	27.542	15.302	-0.802	C.2	1	RES1	0.000	
8	  N3	32.904	16.948	-0.536	N.2	1	RES1	0.000	
9	  C4	26.621	14.559	-1.736	C.3	1	RES1	0.000	
10	  C5	28.794	15.906	-1.207	C.2	1	RES1	0.000	
11	  C6	29.466	16.363	-0.053	C.2	1	RES1	0.000	
12	  C7	31.435	17.686	0.876	C.2	1	RES1	0.000	
13	  N7	30.581	15.777	-2.896	N.2	1	RES1	0.000	
14	  C8	30.798	18.488	1.954	C.3	1	RES1	0.000	
15	  C9	31.784	16.391	-0.845	C.2	1	RES1	0.000	
16	 C10	31.554	15.328	-1.862	C.3	1	RES1	0.000	
17	 C11	32.859	14.962	-2.591	C.3	1	RES1	0.000	
18	 C28	29.314	16.011	-2.568	C.2	1	RES1	0.000	
19	 C29	28.425	16.469	-3.662	C.2	1	RES1	0.000	
20	 C30	27.343	17.331	-3.359	C.2	1	RES1	0.000	
21	 C31	26.504	17.742	-4.390	C.2	1	RES1	0.000	
22	 C32	26.772	17.355	-5.717	C.2	1	RES1	0.000	
23	 C33	27.849	16.559	-5.976	C.2	1	RES1	0.000	
24	 C34	28.689	16.111	-4.961	C.2	1	RES1	0.000	
@<TRIPOS>BOND
1 1 22 1
2 2 5 1
3 3 11 1
4 3 12 ar
5 3 15 ar
6 4 5 ar
7 4 11 ar
8 5 7 ar
9 6 8 ar
10 6 12 ar
11 7 9 1
12 7 10 ar
13 8 15 ar
14 10 11 ar
15 12 14 1
16 13 16 1
17 15 16 1
18 16 17 1
19 10 18 1
20 13 18 2
21 18 19 1
22 19 20 ar
23 19 24 ar
24 20 21 ar
25 21 22 ar
26 22 23 ar
27 23 24 ar
@<TRIPOS>SUBSTRUCTURE
1	RES1	1	GROUP	1 ****	RES
