# created with PyMOL 2.5.2
@<TRIPOS>MOLECULE
BRD4_6C7R_TargetProtein
35 40 1                 
SMALL
USER_CHARGES
@<TRIPOS>ATOM
1	  C1	-2.633	8.806	26.626	C.3	1	RES1	0.000	
2	  N1	-1.934	8.363	24.289	N.2	1	RES1	0.000	
3	  O1	4.938	6.968	26.699	O.2	1	RES1	0.000	
4	  C2	-2.681	7.845	25.416	C.3	1	RES1	0.000	
5	  N2	-2.603	8.954	23.289	N.2	1	RES1	0.000	
6	  C3	-1.631	9.297	22.388	C.2	1	RES1	0.000	
7	  N3	0.296	7.715	24.960	N.pl3	1	RES1	0.000	
8	  C4	-1.923	10.005	21.089	C.3	1	RES1	0.000	
9	  N4	2.541	6.865	25.352	N.2	1	RES1	0.000	
10	  C5	-3.203	9.739	20.358	C.3	1	RES1	0.000	
11	  C6	-1.919	9.269	19.788	C.3	1	RES1	0.000	
12	  C7	-0.373	8.878	22.824	C.2	1	RES1	0.000	
13	  O7	-3.179	5.360	21.143	O.3	1	RES1	0.000	
14	  C8	-0.539	8.283	24.060	C.2	1	RES1	0.000	
15	  N8	3.494	5.001	24.142	N.2	1	RES1	0.000	
16	  O8	-2.437	2.359	17.753	O.2	1	RES1	0.000	
17	  C9	1.348	6.790	24.693	C.2	1	RES1	0.000	
18	  N9	-3.501	2.016	18.601	N.2	1	RES1	0.000	
19	 C10	3.488	5.998	25.047	C.2	1	RES1	0.000	
20	 N10	2.026	4.076	22.540	N.2	1	RES1	0.000	
21	 C11	4.769	6.107	25.815	C.2	1	RES1	0.000	
22	 C32	2.295	4.972	23.517	C.2	1	RES1	0.000	
23	 C33	1.211	5.790	23.687	C.2	1	RES1	0.000	
24	 C34	0.211	5.327	22.779	C.2	1	RES1	0.000	
25	 C35	-1.109	5.707	22.458	C.2	1	RES1	0.000	
26	 C36	-1.866	5.028	21.491	C.2	1	RES1	0.000	
27	 C37	-3.839	6.339	21.964	C.3	1	RES1	0.000	
28	 C38	-1.263	3.962	20.815	C.2	1	RES1	0.000	
29	 C39	-1.995	3.234	19.754	C.2	1	RES1	0.000	
30	 C40	-1.551	3.094	18.445	C.2	1	RES1	0.000	
31	 C41	-0.361	3.570	17.722	C.3	1	RES1	0.000	
32	 C42	-3.228	2.491	19.790	C.2	1	RES1	0.000	
33	 C43	-4.135	2.319	20.924	C.3	1	RES1	0.000	
34	 C44	0.051	3.567	21.103	C.2	1	RES1	0.000	
35	 C45	0.735	4.273	22.073	C.2	1	RES1	0.000	
@<TRIPOS>BOND
1 1 4 1
2 2 4 1
3 2 5 ar
4 2 14 ar
5 3 21 2
6 5 6 ar
7 6 8 1
8 6 12 ar
9 7 14 1
10 7 17 1
11 8 10 1
12 8 11 1
13 9 17 ar
14 10 11 1
15 12 14 ar
16 16 18 ar
17 9 19 ar
18 15 19 ar
19 19 21 1
20 20 22 ar
21 20 35 ar
22 15 22 ar
23 22 23 ar
24 17 23 ar
25 23 24 ar
26 24 25 ar
27 24 35 ar
28 25 26 ar
29 13 26 1
30 26 28 ar
31 13 27 1
32 28 29 1
33 28 34 ar
34 29 30 ar
35 29 32 ar
36 16 30 ar
37 30 31 1
38 18 32 ar
39 32 33 1
40 34 35 ar
@<TRIPOS>SUBSTRUCTURE
1	RES1	1	GROUP	1 ****	RES
