# created with PyMOL 2.5.2
@<TRIPOS>MOLECULE
EGFR_5X26_TargetProtein
40 44 1                 
SMALL
USER_CHARGES
@<TRIPOS>ATOM
1	  N2	-51.898	-0.500	-22.881	N.2	1	RES1	0.000	
2	  O2	-49.951	-3.511	-9.827	O.2	1	RES1	0.000	
3	  N3	-51.869	-0.712	-25.286	N.pl3	1	RES1	0.000	
4	  N4	-53.341	0.743	-24.069	N.2	1	RES1	0.000	
5	  N5	-54.333	1.784	-20.625	N.2	1	RES1	0.000	
6	  C6	-49.955	-0.946	-21.387	C.3	1	RES1	0.000	
7	  N6	-53.489	1.110	-18.616	N.pl3	1	RES1	0.000	
8	  C7	-50.801	-1.424	-22.555	C.3	1	RES1	0.000	
9	  N7	-50.368	-0.941	-14.265	N.pl3	1	RES1	0.000	
10	  C8	-52.397	-0.150	-24.155	C.2	1	RES1	0.000	
11	  N8	-48.607	-1.855	-12.176	N.3	1	RES1	0.000	
12	  C9	-52.027	-0.289	-26.621	C.2	1	RES1	0.000	
13	  N9	-48.557	-4.993	-10.892	N.pl3	1	RES1	0.000	
14	 C10	-52.232	1.026	-27.032	C.2	1	RES1	0.000	
15	 C11	-52.413	1.376	-28.370	C.2	1	RES1	0.000	
16	 C12	-52.389	0.369	-29.341	C.2	1	RES1	0.000	
17	 C13	-52.167	-0.947	-28.994	C.2	1	RES1	0.000	
18	 C14	-52.008	-1.250	-27.656	C.2	1	RES1	0.000	
19	 N14	-52.561	0.187	-20.620	N.2	1	RES1	0.000	
20	 C15	-53.526	0.939	-22.703	C.2	1	RES1	0.000	
21	 C16	-54.384	1.794	-22.010	C.2	1	RES1	0.000	
22	 C17	-53.444	1.004	-20.002	C.2	1	RES1	0.000	
23	 C18	-52.703	0.551	-17.536	C.2	1	RES1	0.000	
24	 C19	-52.894	0.980	-16.264	C.2	1	RES1	0.000	
25	 C20	-52.192	0.486	-15.194	C.2	1	RES1	0.000	
26	 C21	-51.120	-0.422	-15.363	C.2	1	RES1	0.000	
27	 C22	-49.230	-1.846	-14.588	C.3	1	RES1	0.000	
28	 C23	-48.807	-2.689	-13.367	C.3	1	RES1	0.000	
29	 C24	-48.056	-2.594	-11.014	C.3	1	RES1	0.000	
30	 C25	-48.965	-3.731	-10.515	C.2	1	RES1	0.000	
31	 C26	-49.297	-6.185	-10.523	C.3	1	RES1	0.000	
32	 C27	-50.431	-6.481	-11.478	C.3	1	RES1	0.000	
33	 C28	-49.992	-6.796	-12.930	C.3	1	RES1	0.000	
34	 C29	-49.105	-8.027	-13.047	C.3	1	RES1	0.000	
35	 C54	-49.819	-1.099	-11.841	C.3	1	RES1	0.000	
36	 C55	-50.261	-0.184	-13.024	C.3	1	RES1	0.000	
37	 C56	-50.891	-0.848	-16.680	C.2	1	RES1	0.000	
38	 C57	-51.661	-0.346	-17.748	C.2	1	RES1	0.000	
39	 C58	-52.645	0.205	-21.977	C.2	1	RES1	0.000	
40	 C59	-51.339	-2.851	-22.342	C.3	1	RES1	0.000	
@<TRIPOS>BOND
1 1 8 1
2 1 10 ar
3 1 39 ar
4 2 30 2
5 3 10 1
6 3 12 1
7 4 10 ar
8 6 8 1
9 12 14 ar
10 14 15 ar
11 15 16 ar
12 16 17 ar
13 17 18 ar
14 12 18 ar
15 19 22 ar
16 19 39 ar
17 4 20 ar
18 20 21 ar
19 20 39 ar
20 5 21 ar
21 5 22 ar
22 7 22 1
23 7 23 1
24 23 24 ar
25 23 38 ar
26 24 25 ar
27 25 26 ar
28 9 26 1
29 26 37 ar
30 9 27 1
31 27 28 1
32 11 28 1
33 11 29 1
34 29 30 1
35 13 30 1
36 13 31 1
37 31 32 1
38 32 33 1
39 33 34 1
40 11 35 1
41 35 36 1
42 9 36 1
43 37 38 ar
44 8 40 1
@<TRIPOS>SUBSTRUCTURE
1	RES1	1	GROUP	1 ****	RES
