# created with PyMOL 2.5.2
@<TRIPOS>MOLECULE
EGFR_5X26_TargetProtein
40 45 1                 
SMALL
USER_CHARGES
@<TRIPOS>ATOM
1	  C1	-48.266	-6.507	-22.428	C.3	1	RES1	0.000	
2	  N1	-50.227	-3.585	-21.561	N.pl3	1	RES1	0.000	
3	  O1	-50.566	-5.020	-23.328	O.2	1	RES1	0.000	
4	  C2	-49.064	-5.742	-21.673	C.3	1	RES1	0.000	
5	  N2	-51.964	-0.399	-22.689	N.2	1	RES1	0.000	
6	  C3	-49.997	-4.737	-22.252	C.2	1	RES1	0.000	
7	  N3	-51.781	-0.747	-25.063	N.pl3	1	RES1	0.000	
8	  C4	-49.442	-3.098	-20.418	C.3	1	RES1	0.000	
9	  N4	-53.337	0.757	-23.985	N.2	1	RES1	0.000	
10	  C5	-48.918	-1.656	-20.637	C.3	1	RES1	0.000	
11	  N5	-54.523	1.980	-20.693	N.2	1	RES1	0.000	
12	  C6	-50.065	-0.708	-21.057	C.3	1	RES1	0.000	
13	  N6	-53.629	1.302	-18.592	N.pl3	1	RES1	0.000	
14	  C7	-50.855	-1.266	-22.256	C.3	1	RES1	0.000	
15	  N7	-50.314	-0.998	-14.503	N.pl3	1	RES1	0.000	
16	  C8	-52.363	-0.110	-23.998	C.2	1	RES1	0.000	
17	  N8	-48.766	-2.369	-12.523	N.3	1	RES1	0.000	
18	  C9	-51.901	-0.434	-26.464	C.2	1	RES1	0.000	
19	 C10	-52.115	0.892	-26.930	C.2	1	RES1	0.000	
20	 C11	-52.242	1.121	-28.315	C.2	1	RES1	0.000	
21	 C12	-52.128	0.067	-29.211	C.2	1	RES1	0.000	
22	 C13	-51.904	-1.204	-28.752	C.2	1	RES1	0.000	
23	 C14	-51.780	-1.457	-27.377	C.2	1	RES1	0.000	
24	 N14	-52.740	0.394	-20.514	N.2	1	RES1	0.000	
25	 C15	-53.585	1.046	-22.676	C.2	1	RES1	0.000	
26	 C16	-54.528	1.897	-22.038	C.2	1	RES1	0.000	
27	 C17	-53.636	1.232	-19.968	C.2	1	RES1	0.000	
28	 C18	-52.828	0.756	-17.561	C.2	1	RES1	0.000	
29	 C19	-52.901	1.162	-16.220	C.2	1	RES1	0.000	
30	 C20	-52.073	0.628	-15.241	C.2	1	RES1	0.000	
31	 C21	-51.160	-0.404	-15.522	C.2	1	RES1	0.000	
32	 C22	-49.421	-2.094	-14.900	C.3	1	RES1	0.000	
33	 C23	-48.272	-2.264	-13.895	C.3	1	RES1	0.000	
34	 C24	-47.647	-2.551	-11.574	C.3	1	RES1	0.000	
35	 C55	-49.537	-1.160	-12.161	C.3	1	RES1	0.000	
36	 C56	-50.730	-0.962	-13.105	C.3	1	RES1	0.000	
37	 C57	-51.105	-0.813	-16.857	C.2	1	RES1	0.000	
38	 C58	-51.902	-0.259	-17.859	C.2	1	RES1	0.000	
39	 C59	-52.742	0.356	-21.881	C.2	1	RES1	0.000	
40	 C60	-51.351	-2.728	-21.924	C.3	1	RES1	0.000	
@<TRIPOS>BOND
1 1 4 1
2 2 6 1
3 2 8 1
4 2 40 1
5 3 6 2
6 4 6 1
7 5 14 1
8 5 16 ar
9 5 39 ar
10 7 16 1
11 7 18 1
12 8 10 1
13 9 16 ar
14 10 12 1
15 12 14 1
16 18 19 ar
17 19 20 ar
18 20 21 ar
19 21 22 ar
20 22 23 ar
21 18 23 ar
22 24 27 ar
23 24 39 ar
24 9 25 ar
25 25 26 ar
26 25 39 ar
27 11 26 ar
28 11 27 ar
29 13 27 1
30 13 28 1
31 28 29 ar
32 28 38 ar
33 29 30 ar
34 30 31 ar
35 15 31 1
36 31 37 ar
37 15 32 1
38 32 33 1
39 17 33 1
40 17 34 1
41 17 35 1
42 35 36 1
43 15 36 1
44 37 38 ar
45 14 40 1
@<TRIPOS>SUBSTRUCTURE
1	RES1	1	GROUP	1 ****	RES
