# created with PyMOL 2.5.2
@<TRIPOS>MOLECULE
EGFR_5X26_TargetProtein
40 45 1                 
SMALL
USER_CHARGES
@<TRIPOS>ATOM
1	  C1	-50.016	-5.997	-24.836	C.3	1	RES1	0.000	
2	  N1	-50.331	-3.801	-21.943	N.pl3	1	RES1	0.000	
3	  O1	-49.360	-5.892	-22.087	O.2	1	RES1	0.000	
4	  C2	-50.660	-5.267	-23.935	C.3	1	RES1	0.000	
5	  N2	-51.942	-0.505	-22.896	N.2	1	RES1	0.000	
6	  C3	-50.029	-5.033	-22.572	C.2	1	RES1	0.000	
7	  N3	-51.871	-0.705	-25.292	N.pl3	1	RES1	0.000	
8	  C4	-49.495	-3.376	-20.812	C.3	1	RES1	0.000	
9	  N4	-53.391	0.722	-24.037	N.2	1	RES1	0.000	
10	  C5	-48.928	-1.978	-21.037	C.3	1	RES1	0.000	
11	  N5	-54.320	1.815	-20.645	N.2	1	RES1	0.000	
12	  C6	-50.015	-0.986	-21.375	C.3	1	RES1	0.000	
13	  N6	-53.398	1.154	-18.592	N.pl3	1	RES1	0.000	
14	  C7	-50.871	-1.456	-22.560	C.3	1	RES1	0.000	
15	  N7	-50.307	-0.953	-14.298	N.pl3	1	RES1	0.000	
16	  C8	-52.413	-0.162	-24.154	C.2	1	RES1	0.000	
17	  N8	-48.916	-2.177	-12.097	N.3	1	RES1	0.000	
18	  C9	-52.051	-0.296	-26.647	C.2	1	RES1	0.000	
19	 C10	-52.297	1.003	-27.030	C.2	1	RES1	0.000	
20	 C11	-52.425	1.365	-28.372	C.2	1	RES1	0.000	
21	 C12	-52.354	0.402	-29.376	C.2	1	RES1	0.000	
22	 C13	-52.075	-0.941	-28.962	C.2	1	RES1	0.000	
23	 C14	-51.940	-1.238	-27.657	C.2	1	RES1	0.000	
24	 N14	-52.545	0.225	-20.627	N.2	1	RES1	0.000	
25	 C15	-53.555	0.949	-22.719	C.2	1	RES1	0.000	
26	 C16	-54.415	1.777	-22.005	C.2	1	RES1	0.000	
27	 C17	-53.400	1.040	-20.003	C.2	1	RES1	0.000	
28	 C18	-52.606	0.621	-17.564	C.2	1	RES1	0.000	
29	 C19	-52.783	1.092	-16.262	C.2	1	RES1	0.000	
30	 C20	-52.018	0.611	-15.206	C.2	1	RES1	0.000	
31	 C21	-51.085	-0.415	-15.397	C.2	1	RES1	0.000	
32	 C22	-49.365	-2.051	-14.534	C.3	1	RES1	0.000	
33	 C23	-48.323	-2.140	-13.424	C.3	1	RES1	0.000	
34	 C24	-47.881	-2.303	-11.076	C.3	1	RES1	0.000	
35	 C55	-49.730	-0.965	-11.865	C.3	1	RES1	0.000	
36	 C56	-50.845	-0.846	-12.892	C.3	1	RES1	0.000	
37	 C57	-50.924	-0.894	-16.694	C.2	1	RES1	0.000	
38	 C58	-51.674	-0.415	-17.764	C.2	1	RES1	0.000	
39	 C59	-52.673	0.220	-21.973	C.2	1	RES1	0.000	
40	 C60	-51.414	-2.891	-22.311	C.3	1	RES1	0.000	
@<TRIPOS>BOND
1 1 4 1
2 2 6 1
3 2 8 1
4 2 40 1
5 3 6 2
6 4 6 1
7 5 14 1
8 5 16 ar
9 5 39 ar
10 7 16 1
11 7 18 1
12 8 10 1
13 9 16 ar
14 10 12 1
15 12 14 1
16 18 19 ar
17 19 20 ar
18 20 21 ar
19 21 22 ar
20 22 23 ar
21 18 23 ar
22 24 27 ar
23 24 39 ar
24 9 25 ar
25 25 26 ar
26 25 39 ar
27 11 26 ar
28 11 27 ar
29 13 27 1
30 13 28 1
31 28 29 ar
32 28 38 ar
33 29 30 ar
34 30 31 ar
35 15 31 1
36 31 37 ar
37 15 32 1
38 32 33 1
39 17 33 1
40 17 34 1
41 17 35 1
42 35 36 1
43 15 36 1
44 37 38 ar
45 14 40 1
@<TRIPOS>SUBSTRUCTURE
1	RES1	1	GROUP	1 ****	RES
