# created with PyMOL 2.5.2
@<TRIPOS>MOLECULE
EGFR_5X26_TargetProtein
40 45 1                 
SMALL
USER_CHARGES
@<TRIPOS>ATOM
1	  C1	-50.150	-6.086	-24.819	C.3	1	RES1	0.000	
2	  N1	-50.359	-3.841	-21.969	N.pl3	1	RES1	0.000	
3	  O1	-49.321	-5.899	-22.134	O.2	1	RES1	0.000	
4	  C2	-50.717	-5.296	-23.928	C.3	1	RES1	0.000	
5	  N2	-51.980	-0.514	-22.898	N.2	1	RES1	0.000	
6	  C3	-50.064	-5.052	-22.584	C.2	1	RES1	0.000	
7	  N3	-51.861	-0.700	-25.293	N.pl3	1	RES1	0.000	
8	  C4	-49.520	-3.430	-20.851	C.3	1	RES1	0.000	
9	  N4	-53.387	0.727	-24.048	N.2	1	RES1	0.000	
10	  C5	-48.949	-2.026	-21.061	C.3	1	RES1	0.000	
11	  N5	-54.308	1.810	-20.653	N.2	1	RES1	0.000	
12	  C6	-50.018	-1.009	-21.392	C.3	1	RES1	0.000	
13	  N6	-53.415	1.148	-18.591	N.pl3	1	RES1	0.000	
14	  C7	-50.883	-1.484	-22.523	C.3	1	RES1	0.000	
15	  N7	-50.306	-0.950	-14.277	N.pl3	1	RES1	0.000	
16	  C8	-52.404	-0.151	-24.159	C.2	1	RES1	0.000	
17	  N8	-48.900	-2.164	-12.088	N.3	1	RES1	0.000	
18	  C9	-52.050	-0.260	-26.639	C.2	1	RES1	0.000	
19	 C10	-52.278	1.027	-27.029	C.2	1	RES1	0.000	
20	 C11	-52.442	1.366	-28.380	C.2	1	RES1	0.000	
21	 C12	-52.338	0.407	-29.369	C.2	1	RES1	0.000	
22	 C13	-52.065	-0.929	-28.995	C.2	1	RES1	0.000	
23	 C14	-51.945	-1.269	-27.643	C.2	1	RES1	0.000	
24	 N14	-52.544	0.213	-20.640	N.2	1	RES1	0.000	
25	 C15	-53.541	0.969	-22.706	C.2	1	RES1	0.000	
26	 C16	-54.395	1.786	-21.995	C.2	1	RES1	0.000	
27	 C17	-53.424	1.044	-19.990	C.2	1	RES1	0.000	
28	 C18	-52.631	0.597	-17.582	C.2	1	RES1	0.000	
29	 C19	-51.687	-0.420	-17.761	C.2	1	RES1	0.000	
30	 C20	-50.924	-0.901	-16.691	C.2	1	RES1	0.000	
31	 C21	-51.091	-0.388	-15.375	C.2	1	RES1	0.000	
32	 C22	-49.381	-2.028	-14.538	C.3	1	RES1	0.000	
33	 C23	-48.315	-2.141	-13.435	C.3	1	RES1	0.000	
34	 C24	-47.872	-2.297	-11.050	C.3	1	RES1	0.000	
35	 C54	-49.705	-0.978	-11.866	C.3	1	RES1	0.000	
36	 C55	-50.822	-0.843	-12.916	C.3	1	RES1	0.000	
37	 C56	-52.027	0.611	-15.218	C.2	1	RES1	0.000	
38	 C57	-52.787	1.080	-16.276	C.2	1	RES1	0.000	
39	 C58	-52.659	0.221	-21.966	C.2	1	RES1	0.000	
40	 C59	-51.440	-2.921	-22.321	C.3	1	RES1	0.000	
@<TRIPOS>BOND
1 1 4 1
2 2 6 1
3 2 8 1
4 2 40 1
5 3 6 2
6 4 6 1
7 5 14 1
8 5 16 ar
9 5 39 ar
10 7 16 1
11 7 18 1
12 8 10 1
13 9 16 ar
14 10 12 1
15 12 14 1
16 18 19 ar
17 19 20 ar
18 20 21 ar
19 21 22 ar
20 22 23 ar
21 18 23 ar
22 24 27 ar
23 24 39 ar
24 9 25 ar
25 25 26 ar
26 25 39 ar
27 11 26 ar
28 11 27 ar
29 13 27 1
30 13 28 1
31 28 29 ar
32 28 38 ar
33 29 30 ar
34 30 31 ar
35 15 31 1
36 31 37 ar
37 15 32 1
38 32 33 1
39 17 33 1
40 17 34 1
41 17 35 1
42 35 36 1
43 15 36 1
44 37 38 ar
45 14 40 1
@<TRIPOS>SUBSTRUCTURE
1	RES1	1	GROUP	1 ****	RES
