# created with PyMOL 2.5.2
@<TRIPOS>MOLECULE
EGFR_5X26_TargetProtein
40 45 1                 
SMALL
USER_CHARGES
@<TRIPOS>ATOM
1	  C1	-48.102	-6.419	-23.294	C.3	1	RES1	0.000	
2	  N1	-50.209	-3.773	-22.055	N.pl3	1	RES1	0.000	
3	  O1	-50.518	-5.033	-23.958	O.2	1	RES1	0.000	
4	  C2	-48.921	-5.845	-22.416	C.3	1	RES1	0.000	
5	  N2	-51.894	-0.469	-22.899	N.2	1	RES1	0.000	
6	  C3	-49.961	-4.864	-22.877	C.2	1	RES1	0.000	
7	  N3	-51.873	-0.713	-25.262	N.pl3	1	RES1	0.000	
8	  C4	-49.429	-3.377	-20.826	C.3	1	RES1	0.000	
9	  N4	-53.329	0.773	-24.074	N.2	1	RES1	0.000	
10	  C5	-48.889	-1.951	-20.969	C.3	1	RES1	0.000	
11	  N5	-54.317	1.821	-20.648	N.2	1	RES1	0.000	
12	  C6	-49.993	-0.944	-21.307	C.3	1	RES1	0.000	
13	  N6	-53.469	1.127	-18.595	N.pl3	1	RES1	0.000	
14	  C7	-50.827	-1.410	-22.536	C.3	1	RES1	0.000	
15	  N7	-50.336	-0.965	-14.303	N.pl3	1	RES1	0.000	
16	  C8	-52.386	-0.124	-24.164	C.2	1	RES1	0.000	
17	  N8	-48.603	-1.781	-12.117	N.3	1	RES1	0.000	
18	  C9	-52.049	-0.313	-26.622	C.2	1	RES1	0.000	
19	 C10	-52.260	1.021	-27.028	C.2	1	RES1	0.000	
20	 C11	-52.416	1.331	-28.378	C.2	1	RES1	0.000	
21	 C12	-52.393	0.333	-29.354	C.2	1	RES1	0.000	
22	 C13	-52.199	-0.984	-28.988	C.2	1	RES1	0.000	
23	 C14	-51.997	-1.295	-27.632	C.2	1	RES1	0.000	
24	 N14	-52.561	0.200	-20.613	N.2	1	RES1	0.000	
25	 C15	-53.505	0.991	-22.728	C.2	1	RES1	0.000	
26	 C16	-54.383	1.809	-21.994	C.2	1	RES1	0.000	
27	 C17	-53.441	1.040	-20.010	C.2	1	RES1	0.000	
28	 C18	-52.681	0.548	-17.557	C.2	1	RES1	0.000	
29	 C19	-51.775	-0.488	-17.736	C.2	1	RES1	0.000	
30	 C20	-51.024	-0.992	-16.683	C.2	1	RES1	0.000	
31	 C21	-51.116	-0.453	-15.390	C.2	1	RES1	0.000	
32	 C22	-50.493	-0.387	-12.935	C.3	1	RES1	0.000	
33	 C23	-49.977	-1.322	-11.844	C.3	1	RES1	0.000	
34	 C24	-48.144	-2.680	-11.068	C.3	1	RES1	0.000	
35	 C54	-48.571	-2.498	-13.416	C.3	1	RES1	0.000	
36	 C55	-49.036	-1.601	-14.574	C.3	1	RES1	0.000	
37	 C56	-52.028	0.596	-15.221	C.2	1	RES1	0.000	
38	 C57	-52.791	1.089	-16.283	C.2	1	RES1	0.000	
39	 C58	-52.647	0.230	-21.982	C.2	1	RES1	0.000	
40	 C59	-51.308	-2.830	-22.363	C.3	1	RES1	0.000	
@<TRIPOS>BOND
1 1 4 1
2 2 6 1
3 2 8 1
4 2 40 1
5 3 6 2
6 4 6 1
7 5 14 1
8 5 16 ar
9 5 39 ar
10 7 16 1
11 7 18 1
12 8 10 1
13 9 16 ar
14 10 12 1
15 12 14 1
16 18 19 ar
17 19 20 ar
18 20 21 ar
19 21 22 ar
20 22 23 ar
21 18 23 ar
22 24 27 ar
23 24 39 ar
24 9 25 ar
25 25 26 ar
26 25 39 ar
27 11 26 ar
28 11 27 ar
29 13 27 1
30 13 28 1
31 28 29 ar
32 28 38 ar
33 29 30 ar
34 30 31 ar
35 15 31 1
36 31 37 ar
37 15 32 1
38 32 33 1
39 17 33 1
40 17 34 1
41 17 35 1
42 35 36 1
43 15 36 1
44 37 38 ar
45 14 40 1
@<TRIPOS>SUBSTRUCTURE
1	RES1	1	GROUP	1 ****	RES
