# created with PyMOL 2.5.2
@<TRIPOS>MOLECULE
EGFR_5X26_TargetProtein
37 41 1                 
SMALL
USER_CHARGES
@<TRIPOS>ATOM
1	  N2	-51.927	-0.413	-22.746	N.2	1	RES1	0.000	
2	  N3	-51.803	-0.729	-25.122	N.pl3	1	RES1	0.000	
3	  N4	-53.347	0.763	-23.997	N.2	1	RES1	0.000	
4	  N5	-54.472	1.933	-20.692	N.2	1	RES1	0.000	
5	  C6	-50.088	-0.797	-21.108	C.3	1	RES1	0.000	
6	  N6	-53.577	1.239	-18.588	N.pl3	1	RES1	0.000	
7	  C7	-50.839	-1.333	-22.320	C.3	1	RES1	0.000	
8	  N7	-50.343	-0.986	-14.454	N.pl3	1	RES1	0.000	
9	  C8	-52.367	-0.112	-24.038	C.2	1	RES1	0.000	
10	  N8	-48.508	-1.946	-12.411	N.3	1	RES1	0.000	
11	  C9	-51.950	-0.384	-26.506	C.2	1	RES1	0.000	
12	 C10	-52.170	0.900	-26.969	C.2	1	RES1	0.000	
13	 C11	-52.298	1.138	-28.362	C.2	1	RES1	0.000	
14	 C12	-52.191	0.134	-29.253	C.2	1	RES1	0.000	
15	 C13	-51.986	-1.160	-28.810	C.2	1	RES1	0.000	
16	 N13	-52.683	0.360	-20.543	N.2	1	RES1	0.000	
17	 C14	-51.838	-1.424	-27.437	C.2	1	RES1	0.000	
18	 C15	-53.583	1.028	-22.694	C.2	1	RES1	0.000	
19	 C16	-54.469	1.872	-22.027	C.2	1	RES1	0.000	
20	 C17	-53.569	1.177	-19.987	C.2	1	RES1	0.000	
21	 C18	-52.801	0.705	-17.535	C.2	1	RES1	0.000	
22	 C19	-51.897	-0.323	-17.825	C.2	1	RES1	0.000	
23	 C20	-51.086	-0.858	-16.805	C.2	1	RES1	0.000	
24	 C21	-51.176	-0.423	-15.469	C.2	1	RES1	0.000	
25	 C22	-50.473	-0.531	-13.057	C.3	1	RES1	0.000	
26	 C23	-49.915	-1.554	-12.065	C.3	1	RES1	0.000	
27	 C24	-47.951	-2.918	-11.431	C.3	1	RES1	0.000	
28	 C25	-47.702	-2.312	-10.035	C.3	1	RES1	0.000	
29	 C26	-46.923	-3.246	-9.107	C.3	1	RES1	0.000	
30	 C27	-47.674	-4.494	-8.727	C.3	1	RES1	0.000	
31	 C28	-46.903	-5.341	-7.710	C.3	1	RES1	0.000	
32	 C55	-48.490	-2.508	-13.772	C.3	1	RES1	0.000	
33	 C56	-48.994	-1.527	-14.812	C.3	1	RES1	0.000	
34	 C57	-52.075	0.595	-15.217	C.2	1	RES1	0.000	
35	 C58	-52.876	1.186	-16.234	C.2	1	RES1	0.000	
36	 C59	-52.725	0.311	-21.897	C.2	1	RES1	0.000	
37	 C60	-51.354	-2.755	-22.118	C.3	1	RES1	0.000	
@<TRIPOS>BOND
1 1 7 1
2 1 9 ar
3 1 36 ar
4 2 9 1
5 2 11 1
6 3 9 ar
7 5 7 1
8 11 12 ar
9 12 13 ar
10 13 14 ar
11 14 15 ar
12 15 17 ar
13 16 20 ar
14 16 36 ar
15 11 17 ar
16 3 18 ar
17 18 19 ar
18 18 36 ar
19 4 19 ar
20 4 20 ar
21 6 20 1
22 6 21 1
23 21 22 ar
24 21 35 ar
25 22 23 ar
26 23 24 ar
27 8 24 1
28 24 34 ar
29 8 25 1
30 25 26 1
31 10 26 1
32 10 27 1
33 27 28 1
34 28 29 1
35 29 30 1
36 30 31 1
37 10 32 1
38 32 33 1
39 8 33 1
40 34 35 ar
41 7 37 1
@<TRIPOS>SUBSTRUCTURE
1	RES1	1	GROUP	1 ****	RES
