# created with PyMOL 2.5.2
@<TRIPOS>MOLECULE
EGFR_5X26_TargetProtein
37 41 1                 
SMALL
USER_CHARGES
@<TRIPOS>ATOM
1	  N2	-51.912	-0.515	-22.895	N.2	1	RES1	0.000	
2	  N3	-51.907	-0.725	-25.295	N.pl3	1	RES1	0.000	
3	  N4	-53.387	0.767	-24.068	N.2	1	RES1	0.000	
4	  N5	-54.300	1.832	-20.624	N.2	1	RES1	0.000	
5	  C6	-49.956	-0.950	-21.427	C.3	1	RES1	0.000	
6	  N6	-53.410	1.140	-18.611	N.pl3	1	RES1	0.000	
7	  C7	-50.831	-1.438	-22.594	C.3	1	RES1	0.000	
8	  N7	-50.307	-0.948	-14.280	N.pl3	1	RES1	0.000	
9	  C8	-52.408	-0.162	-24.164	C.2	1	RES1	0.000	
10	  N8	-48.911	-2.154	-12.040	N.3	1	RES1	0.000	
11	  C9	-52.087	-0.301	-26.647	C.2	1	RES1	0.000	
12	 C10	-52.290	1.030	-27.045	C.2	1	RES1	0.000	
13	 C11	-52.449	1.353	-28.375	C.2	1	RES1	0.000	
14	 C12	-52.367	0.393	-29.372	C.2	1	RES1	0.000	
15	 C13	-52.137	-0.927	-29.017	C.2	1	RES1	0.000	
16	 N13	-52.532	0.208	-20.649	N.2	1	RES1	0.000	
17	 C14	-52.013	-1.276	-27.639	C.2	1	RES1	0.000	
18	 C15	-53.516	0.986	-22.699	C.2	1	RES1	0.000	
19	 C16	-54.370	1.799	-21.995	C.2	1	RES1	0.000	
20	 C17	-53.396	1.041	-20.005	C.2	1	RES1	0.000	
21	 C18	-52.632	0.590	-17.572	C.2	1	RES1	0.000	
22	 C19	-52.783	1.066	-16.277	C.2	1	RES1	0.000	
23	 C20	-52.027	0.570	-15.216	C.2	1	RES1	0.000	
24	 C21	-51.088	-0.457	-15.393	C.2	1	RES1	0.000	
25	 C22	-49.346	-2.065	-14.507	C.3	1	RES1	0.000	
26	 C23	-48.324	-2.119	-13.366	C.3	1	RES1	0.000	
27	 C24	-47.895	-2.288	-10.993	C.3	1	RES1	0.000	
28	 C25	-48.437	-2.613	-9.593	C.3	1	RES1	0.000	
29	 C26	-47.321	-2.848	-8.586	C.3	1	RES1	0.000	
30	 C27	-47.820	-3.057	-7.145	C.3	1	RES1	0.000	
31	 C28	-48.634	-4.343	-6.993	C.3	1	RES1	0.000	
32	 C55	-49.774	-0.964	-11.847	C.3	1	RES1	0.000	
33	 C56	-50.867	-0.851	-12.917	C.3	1	RES1	0.000	
34	 C57	-50.908	-0.921	-16.694	C.2	1	RES1	0.000	
35	 C58	-51.675	-0.425	-17.778	C.2	1	RES1	0.000	
36	 C59	-52.652	0.216	-21.981	C.2	1	RES1	0.000	
37	 C60	-51.371	-2.839	-22.319	C.3	1	RES1	0.000	
@<TRIPOS>BOND
1 1 7 1
2 1 9 ar
3 1 36 ar
4 2 9 1
5 2 11 1
6 3 9 ar
7 5 7 1
8 11 12 ar
9 12 13 ar
10 13 14 ar
11 14 15 ar
12 15 17 ar
13 16 20 ar
14 16 36 ar
15 11 17 ar
16 3 18 ar
17 18 19 ar
18 18 36 ar
19 4 19 ar
20 4 20 ar
21 6 20 1
22 6 21 1
23 21 22 ar
24 21 35 ar
25 22 23 ar
26 23 24 ar
27 8 24 1
28 24 34 ar
29 8 25 1
30 25 26 1
31 10 26 1
32 10 27 1
33 27 28 1
34 28 29 1
35 29 30 1
36 30 31 1
37 10 32 1
38 32 33 1
39 8 33 1
40 34 35 ar
41 7 37 1
@<TRIPOS>SUBSTRUCTURE
1	RES1	1	GROUP	1 ****	RES
