# created with PyMOL 2.5.2
@<TRIPOS>MOLECULE
EGFR_5X26_TargetProtein
37 41 1                 
SMALL
USER_CHARGES
@<TRIPOS>ATOM
1	  N2	-51.946	-0.537	-22.908	N.2	1	RES1	0.000	
2	  N3	-51.862	-0.707	-25.312	N.pl3	1	RES1	0.000	
3	  N4	-53.400	0.708	-24.047	N.2	1	RES1	0.000	
4	  N5	-54.317	1.782	-20.639	N.2	1	RES1	0.000	
5	  C6	-50.029	-1.041	-21.403	C.3	1	RES1	0.000	
6	  N6	-53.411	1.127	-18.604	N.pl3	1	RES1	0.000	
7	  C7	-50.873	-1.510	-22.582	C.3	1	RES1	0.000	
8	  N7	-50.303	-0.957	-14.289	N.pl3	1	RES1	0.000	
9	  C8	-52.401	-0.168	-24.168	C.2	1	RES1	0.000	
10	  N8	-48.651	-1.779	-12.038	N.3	1	RES1	0.000	
11	  C9	-52.058	-0.277	-26.644	C.2	1	RES1	0.000	
12	 C10	-52.311	1.053	-27.046	C.2	1	RES1	0.000	
13	 C11	-52.480	1.387	-28.386	C.2	1	RES1	0.000	
14	 C12	-52.359	0.430	-29.369	C.2	1	RES1	0.000	
15	 C13	-52.105	-0.897	-29.008	C.2	1	RES1	0.000	
16	 N13	-52.542	0.198	-20.638	N.2	1	RES1	0.000	
17	 C14	-51.965	-1.212	-27.668	C.2	1	RES1	0.000	
18	 C15	-53.558	0.937	-22.714	C.2	1	RES1	0.000	
19	 C16	-54.396	1.767	-21.983	C.2	1	RES1	0.000	
20	 C17	-53.399	1.013	-20.028	C.2	1	RES1	0.000	
21	 C18	-52.618	0.591	-17.582	C.2	1	RES1	0.000	
22	 C19	-52.758	1.084	-16.287	C.2	1	RES1	0.000	
23	 C20	-52.004	0.593	-15.203	C.2	1	RES1	0.000	
24	 C21	-51.067	-0.434	-15.368	C.2	1	RES1	0.000	
25	 C22	-50.542	-0.375	-12.939	C.3	1	RES1	0.000	
26	 C23	-50.058	-1.338	-11.845	C.3	1	RES1	0.000	
27	 C24	-48.181	-2.670	-10.977	C.3	1	RES1	0.000	
28	 C25	-48.000	-1.989	-9.610	C.3	1	RES1	0.000	
29	 C26	-47.405	-2.930	-8.563	C.3	1	RES1	0.000	
30	 C27	-47.234	-2.237	-7.224	C.3	1	RES1	0.000	
31	 C28	-46.591	-3.154	-6.198	C.3	1	RES1	0.000	
32	 C55	-48.538	-2.446	-13.346	C.3	1	RES1	0.000	
33	 C56	-48.974	-1.517	-14.514	C.3	1	RES1	0.000	
34	 C57	-50.941	-0.951	-16.697	C.2	1	RES1	0.000	
35	 C58	-51.675	-0.465	-17.746	C.2	1	RES1	0.000	
36	 C59	-52.674	0.189	-21.983	C.2	1	RES1	0.000	
37	 C60	-51.426	-2.914	-22.341	C.3	1	RES1	0.000	
@<TRIPOS>BOND
1 1 7 1
2 1 9 ar
3 1 36 ar
4 2 9 1
5 2 11 1
6 3 9 ar
7 5 7 1
8 11 12 ar
9 12 13 ar
10 13 14 ar
11 14 15 ar
12 15 17 ar
13 16 20 ar
14 16 36 ar
15 11 17 ar
16 3 18 ar
17 18 19 ar
18 18 36 ar
19 4 19 ar
20 4 20 ar
21 6 20 1
22 6 21 1
23 21 22 ar
24 21 35 ar
25 22 23 ar
26 23 24 ar
27 8 24 1
28 24 34 ar
29 8 25 1
30 25 26 1
31 10 26 1
32 10 27 1
33 27 28 1
34 28 29 1
35 29 30 1
36 30 31 1
37 10 32 1
38 32 33 1
39 8 33 1
40 34 35 ar
41 7 37 1
@<TRIPOS>SUBSTRUCTURE
1	RES1	1	GROUP	1 ****	RES
