# created with PyMOL 2.5.2
@<TRIPOS>MOLECULE
EGFR_5X26_TargetProtein
37 41 1                 
SMALL
USER_CHARGES
@<TRIPOS>ATOM
1	  N2	-51.898	-0.481	-22.909	N.2	1	RES1	0.000	
2	  N3	-51.874	-0.729	-25.314	N.pl3	1	RES1	0.000	
3	  N4	-53.346	0.749	-24.060	N.2	1	RES1	0.000	
4	  N5	-54.313	1.768	-20.644	N.2	1	RES1	0.000	
5	  C6	-49.931	-0.911	-21.434	C.3	1	RES1	0.000	
6	  N6	-53.441	1.101	-18.604	N.pl3	1	RES1	0.000	
7	  C7	-50.779	-1.399	-22.581	C.3	1	RES1	0.000	
8	  N7	-50.307	-0.953	-14.301	N.pl3	1	RES1	0.000	
9	  C8	-52.410	-0.151	-24.174	C.2	1	RES1	0.000	
10	  N8	-48.966	-2.095	-11.964	N.3	1	RES1	0.000	
11	  C9	-52.033	-0.289	-26.632	C.2	1	RES1	0.000	
12	 C10	-52.238	1.056	-27.034	C.2	1	RES1	0.000	
13	 C11	-52.428	1.403	-28.394	C.2	1	RES1	0.000	
14	 C12	-52.417	0.427	-29.358	C.2	1	RES1	0.000	
15	 C13	-52.259	-0.918	-28.995	C.2	1	RES1	0.000	
16	 N13	-52.545	0.181	-20.659	N.2	1	RES1	0.000	
17	 C14	-52.057	-1.255	-27.662	C.2	1	RES1	0.000	
18	 C15	-53.518	0.971	-22.718	C.2	1	RES1	0.000	
19	 C16	-54.390	1.769	-21.997	C.2	1	RES1	0.000	
20	 C17	-53.391	0.979	-20.023	C.2	1	RES1	0.000	
21	 C18	-52.646	0.559	-17.578	C.2	1	RES1	0.000	
22	 C19	-52.840	0.980	-16.261	C.2	1	RES1	0.000	
23	 C20	-52.095	0.496	-15.204	C.2	1	RES1	0.000	
24	 C21	-51.095	-0.471	-15.408	C.2	1	RES1	0.000	
25	 C22	-50.670	-0.493	-12.913	C.3	1	RES1	0.000	
26	 C23	-49.485	-0.703	-11.948	C.3	1	RES1	0.000	
27	 C24	-47.843	-2.295	-11.006	C.3	1	RES1	0.000	
28	 C25	-48.255	-2.185	-9.516	C.3	1	RES1	0.000	
29	 C26	-49.369	-3.152	-9.120	C.3	1	RES1	0.000	
30	 C27	-49.638	-3.181	-7.617	C.3	1	RES1	0.000	
31	 C28	-50.217	-1.857	-7.093	C.3	1	RES1	0.000	
32	 C55	-48.537	-2.427	-13.326	C.3	1	RES1	0.000	
33	 C56	-49.680	-2.288	-14.360	C.3	1	RES1	0.000	
34	 C57	-50.854	-0.899	-16.717	C.2	1	RES1	0.000	
35	 C58	-51.616	-0.414	-17.790	C.2	1	RES1	0.000	
36	 C59	-52.636	0.223	-21.988	C.2	1	RES1	0.000	
37	 C60	-51.291	-2.831	-22.349	C.3	1	RES1	0.000	
@<TRIPOS>BOND
1 1 7 1
2 1 9 ar
3 1 36 ar
4 2 9 1
5 2 11 1
6 3 9 ar
7 5 7 1
8 11 12 ar
9 12 13 ar
10 13 14 ar
11 14 15 ar
12 15 17 ar
13 16 20 ar
14 16 36 ar
15 11 17 ar
16 3 18 ar
17 18 19 ar
18 18 36 ar
19 4 19 ar
20 4 20 ar
21 6 20 1
22 6 21 1
23 21 22 ar
24 21 35 ar
25 22 23 ar
26 23 24 ar
27 8 24 1
28 24 34 ar
29 8 25 1
30 25 26 1
31 10 26 1
32 10 27 1
33 27 28 1
34 28 29 1
35 29 30 1
36 30 31 1
37 10 32 1
38 32 33 1
39 8 33 1
40 34 35 ar
41 7 37 1
@<TRIPOS>SUBSTRUCTURE
1	RES1	1	GROUP	1 ****	RES
