# created with PyMOL 2.5.2
@<TRIPOS>MOLECULE
SOS1_6D55_TargetProtein
34 39 1                 
SMALL
USER_CHARGES
@<TRIPOS>ATOM
1	 CL1	32.124	30.110	27.798	Cl	1	RES1	0.000	
2	  C1	34.332	33.383	21.349	C.3	1	RES1	0.000	
3	  N1	33.992	28.477	23.197	N.2	1	RES1	0.000	
4	  C2	33.487	32.148	21.037	C.2	1	RES1	0.000	
5	  N2	35.684	27.663	21.630	N.pl3	1	RES1	0.000	
6	  C3	33.522	31.018	21.829	C.2	1	RES1	0.000	
7	  N3	36.656	26.426	17.913	N.3	1	RES1	0.000	
8	  C4	32.775	29.876	21.508	C.2	1	RES1	0.000	
9	  N4	36.069	28.212	23.918	N.2	1	RES1	0.000	
10	  C5	32.813	28.600	22.342	C.3	1	RES1	0.000	
11	  N5	37.010	28.778	26.844	N.pl3	1	RES1	0.000	
12	  C6	35.265	28.092	22.876	C.2	1	RES1	0.000	
13	  N6	39.632	28.754	28.080	N.3	1	RES1	0.000	
14	  C7	35.022	27.457	20.355	C.3	1	RES1	0.000	
15	  C8	36.364	26.913	19.901	C.3	1	RES1	0.000	
16	  C9	36.410	25.599	19.112	C.3	1	RES1	0.000	
17	 C10	37.083	27.567	18.730	C.3	1	RES1	0.000	
18	 C11	36.904	27.006	21.303	C.3	1	RES1	0.000	
19	 C12	35.317	28.668	24.947	C.2	1	RES1	0.000	
20	 C13	35.683	28.948	26.302	C.2	1	RES1	0.000	
21	 C14	38.152	29.492	26.204	C.3	1	RES1	0.000	
22	 C15	39.471	28.867	26.618	C.3	1	RES1	0.000	
23	 C16	40.943	28.189	28.435	C.3	1	RES1	0.000	
24	 C45	38.534	27.972	28.629	C.3	1	RES1	0.000	
25	 C46	37.147	28.578	28.314	C.3	1	RES1	0.000	
26	 C47	34.657	29.407	27.135	C.2	1	RES1	0.000	
27	 C48	33.350	29.568	26.723	C.2	1	RES1	0.000	
28	 C49	32.982	29.289	25.382	C.2	1	RES1	0.000	
29	 C50	34.004	28.841	24.533	C.2	1	RES1	0.000	
30	 C51	32.008	29.887	20.316	C.2	1	RES1	0.000	
31	 C52	31.953	31.026	19.502	C.2	1	RES1	0.000	
32	 C53	31.155	31.016	18.233	C.3	1	RES1	0.000	
33	 C54	32.736	32.137	19.867	C.2	1	RES1	0.000	
34	  F1	32.705	33.210	19.077	 F	1	RES1	0.000	
@<TRIPOS>BOND
1 1 27 1
2 2 4 1
3 3 10 1
4 3 12 ar
5 3 29 ar
6 4 6 ar
7 4 33 ar
8 5 12 1
9 5 14 1
10 6 8 ar
11 7 16 1
12 8 10 1
13 8 30 ar
14 9 12 ar
15 14 15 1
16 15 16 1
17 7 17 1
18 15 17 1
19 5 18 1
20 15 18 1
21 9 19 ar
22 19 20 ar
23 19 29 ar
24 11 20 1
25 20 26 ar
26 11 21 1
27 21 22 1
28 13 22 1
29 13 23 1
30 13 24 1
31 24 25 1
32 11 25 1
33 26 27 ar
34 27 28 ar
35 28 29 ar
36 30 31 ar
37 31 32 1
38 31 33 ar
39 33 34 1
@<TRIPOS>SUBSTRUCTURE
1	RES1	1	GROUP	1 ****	RES
