# created with PyMOL 2.5.2
@<TRIPOS>MOLECULE
BRD4_4F3I_TargetProtein
29 32 1                 
SMALL
USER_CHARGES
@<TRIPOS>ATOM
1	 CL1	30.217	48.890	-7.019	Cl	1	RES1	0.000	
2	  C1	22.137	54.551	-5.073	C.3	1	RES1	0.000	
3	  N1	25.378	51.078	-2.927	N.2	1	RES1	0.000	
4	  O1	22.150	53.376	-4.263	O.3	1	RES1	0.000	
5	  S1	27.410	50.566	1.327	S.2	1	RES1	0.000	
6	  C2	23.238	53.200	-3.489	C.2	1	RES1	0.000	
7	  O2	24.191	53.988	-3.443	O.co2	1	RES1	0.000	
8	  C3	23.078	51.932	-2.684	C.3	1	RES1	0.000	
9	  O3	30.860	52.264	0.790	O.2	1	RES1	0.000	
10	  C4	24.370	51.506	-1.938	C.3	1	RES1	0.000	
11	  C5	26.593	50.836	-2.602	C.2	1	RES1	0.000	
12	  N5	25.135	50.091	-0.031	N.2	1	RES1	0.000	
13	  C6	27.537	50.345	-3.690	C.2	1	RES1	0.000	
14	  N6	23.208	49.159	0.557	N.2	1	RES1	0.000	
15	  C7	27.376	50.866	-4.984	C.2	1	RES1	0.000	
16	  N7	22.982	49.971	-0.541	N.2	1	RES1	0.000	
17	  C8	28.224	50.421	-6.015	C.2	1	RES1	0.000	
18	  C9	29.173	49.427	-5.758	C.2	1	RES1	0.000	
19	 C10	29.308	48.906	-4.473	C.2	1	RES1	0.000	
20	 C11	28.480	49.334	-3.439	C.2	1	RES1	0.000	
21	 C12	27.138	50.967	-1.262	C.2	1	RES1	0.000	
22	 C13	26.463	50.495	-0.114	C.2	1	RES1	0.000	
23	 C14	28.692	51.383	0.471	C.2	1	RES1	0.000	
24	 C15	29.873	51.741	1.245	C.2	1	RES1	0.000	
25	 C37	28.408	51.562	-0.870	C.2	1	RES1	0.000	
26	 C38	29.309	52.288	-1.801	C.3	1	RES1	0.000	
27	 C39	24.498	49.224	0.837	C.2	1	RES1	0.000	
28	 C40	25.120	48.398	1.910	C.3	1	RES1	0.000	
29	 C41	24.142	50.505	-0.866	C.2	1	RES1	0.000	
@<TRIPOS>BOND
1 1 18 1
2 2 4 1
3 3 10 1
4 3 11 2
5 4 6 1
6 5 22 ar
7 5 23 ar
8 6 8 1
9 6 7 2
10 8 10 1
11 10 29 1
12 11 13 1
13 13 15 ar
14 14 16 ar
15 15 17 ar
16 17 18 ar
17 18 19 ar
18 19 20 ar
19 13 20 ar
20 11 21 1
21 21 22 ar
22 21 25 ar
23 12 22 1
24 23 24 1
25 23 25 ar
26 9 24 2
27 25 26 1
28 12 27 ar
29 14 27 ar
30 27 28 1
31 12 29 ar
32 16 29 ar
@<TRIPOS>SUBSTRUCTURE
1	RES1	1	GROUP	1 ****	RES
