# created with PyMOL 2.5.2
@<TRIPOS>MOLECULE
SOS1_6D55_TargetProtein
34 39 1                 
SMALL
USER_CHARGES
@<TRIPOS>ATOM
1	 CL1	32.133	30.101	27.796	Cl	1	RES1	0.000	
2	  C1	34.299	33.375	21.441	C.3	1	RES1	0.000	
3	  N1	33.974	28.470	23.207	N.2	1	RES1	0.000	
4	  C2	33.494	32.179	21.056	C.2	1	RES1	0.000	
5	  N2	35.665	27.646	21.635	N.pl3	1	RES1	0.000	
6	  C3	33.521	31.007	21.857	C.2	1	RES1	0.000	
7	  N3	36.678	26.422	17.926	N.3	1	RES1	0.000	
8	  C4	32.765	29.864	21.523	C.2	1	RES1	0.000	
9	  N4	36.046	28.190	23.923	N.2	1	RES1	0.000	
10	  C5	32.797	28.592	22.342	C.3	1	RES1	0.000	
11	  N5	36.990	28.800	26.846	N.pl3	1	RES1	0.000	
12	  C6	35.263	28.076	22.855	C.2	1	RES1	0.000	
13	  N6	39.651	28.807	28.037	N.3	1	RES1	0.000	
14	  C7	35.026	27.507	20.339	C.3	1	RES1	0.000	
15	  C8	36.349	26.929	19.907	C.3	1	RES1	0.000	
16	  C9	36.346	25.603	19.098	C.3	1	RES1	0.000	
17	 C10	37.119	27.535	18.742	C.3	1	RES1	0.000	
18	 C11	36.884	26.954	21.310	C.3	1	RES1	0.000	
19	 C12	35.297	28.662	24.979	C.2	1	RES1	0.000	
20	 C13	35.666	28.957	26.311	C.2	1	RES1	0.000	
21	 C14	38.135	29.516	26.185	C.3	1	RES1	0.000	
22	 C15	39.478	28.874	26.574	C.3	1	RES1	0.000	
23	 C16	40.945	28.202	28.367	C.3	1	RES1	0.000	
24	 C46	38.536	27.996	28.631	C.3	1	RES1	0.000	
25	 C47	37.160	28.597	28.272	C.3	1	RES1	0.000	
26	 C48	34.653	29.400	27.155	C.2	1	RES1	0.000	
27	 C49	33.338	29.552	26.682	C.2	1	RES1	0.000	
28	 C50	32.963	29.273	25.400	C.2	1	RES1	0.000	
29	 C51	33.961	28.830	24.546	C.2	1	RES1	0.000	
30	 C52	32.057	29.866	20.324	C.2	1	RES1	0.000	
31	 C53	32.001	31.027	19.500	C.2	1	RES1	0.000	
32	 C54	31.270	30.995	18.206	C.3	1	RES1	0.000	
33	 C55	32.737	32.144	19.874	C.2	1	RES1	0.000	
34	  F1	32.747	33.228	19.101	 F	1	RES1	0.000	
@<TRIPOS>BOND
1 1 27 1
2 2 4 1
3 3 10 1
4 3 12 ar
5 3 29 ar
6 4 6 ar
7 4 33 ar
8 5 12 1
9 5 14 1
10 6 8 ar
11 7 16 1
12 8 10 1
13 8 30 ar
14 9 12 ar
15 14 15 1
16 15 16 1
17 7 17 1
18 15 17 1
19 5 18 1
20 15 18 1
21 9 19 ar
22 19 20 ar
23 19 29 ar
24 11 20 1
25 20 26 ar
26 11 21 1
27 21 22 1
28 13 22 1
29 13 23 1
30 13 24 1
31 24 25 1
32 11 25 1
33 26 27 ar
34 27 28 ar
35 28 29 ar
36 30 31 ar
37 31 32 1
38 31 33 ar
39 33 34 1
@<TRIPOS>SUBSTRUCTURE
1	RES1	1	GROUP	1 ****	RES
