# created with PyMOL 2.5.2
@<TRIPOS>MOLECULE
SOS1_6D55_TargetProtein
34 39 1                 
SMALL
USER_CHARGES
@<TRIPOS>ATOM
1	 CL1	32.256	30.520	27.688	Cl	1	RES1	0.000	
2	  C1	34.028	33.500	21.258	C.3	1	RES1	0.000	
3	  N1	34.100	28.613	23.162	N.2	1	RES1	0.000	
4	  C2	33.305	32.247	20.941	C.2	1	RES1	0.000	
5	  N2	35.768	27.668	21.663	N.pl3	1	RES1	0.000	
6	  C3	33.444	31.095	21.764	C.2	1	RES1	0.000	
7	  N3	36.828	26.190	18.039	N.3	1	RES1	0.000	
8	  C4	32.800	29.898	21.469	C.2	1	RES1	0.000	
9	  N4	36.132	28.174	23.974	N.2	1	RES1	0.000	
10	  C5	32.929	28.650	22.303	C.3	1	RES1	0.000	
11	  N5	37.027	28.734	26.892	N.pl3	1	RES1	0.000	
12	  C6	35.358	28.116	22.866	C.2	1	RES1	0.000	
13	  N6	39.527	27.944	28.147	N.3	1	RES1	0.000	
14	  C7	37.011	27.935	21.012	C.3	1	RES1	0.000	
15	  C8	36.486	27.115	19.882	C.3	1	RES1	0.000	
16	  C9	37.230	25.883	19.416	C.3	1	RES1	0.000	
17	 C10	36.565	27.587	18.445	C.3	1	RES1	0.000	
18	 C11	35.131	26.959	20.561	C.3	1	RES1	0.000	
19	 C12	35.388	28.705	24.964	C.2	1	RES1	0.000	
20	 C13	35.703	28.968	26.326	C.2	1	RES1	0.000	
21	 C14	37.130	28.655	28.368	C.3	1	RES1	0.000	
22	 C15	38.599	28.858	28.831	C.3	1	RES1	0.000	
23	 C16	40.912	28.159	28.610	C.3	1	RES1	0.000	
24	 C47	39.431	28.141	26.663	C.3	1	RES1	0.000	
25	 C48	38.009	27.911	26.165	C.3	1	RES1	0.000	
26	 C49	34.709	29.546	27.114	C.2	1	RES1	0.000	
27	 C50	33.429	29.819	26.643	C.2	1	RES1	0.000	
28	 C51	33.105	29.541	25.310	C.2	1	RES1	0.000	
29	 C52	34.088	28.967	24.513	C.2	1	RES1	0.000	
30	 C53	31.954	29.838	20.343	C.2	1	RES1	0.000	
31	 C54	31.800	30.977	19.500	C.2	1	RES1	0.000	
32	 C55	30.940	30.897	18.270	C.3	1	RES1	0.000	
33	 C56	32.475	32.127	19.823	C.2	1	RES1	0.000	
34	  F1	32.350	33.239	19.022	 F	1	RES1	0.000	
@<TRIPOS>BOND
1 1 27 1
2 2 4 1
3 3 10 1
4 3 12 ar
5 3 29 ar
6 4 6 ar
7 4 33 ar
8 5 12 1
9 5 14 1
10 6 8 ar
11 7 16 1
12 8 10 1
13 8 30 ar
14 9 12 ar
15 14 15 1
16 15 16 1
17 7 17 1
18 15 17 1
19 5 18 1
20 15 18 1
21 9 19 ar
22 19 20 ar
23 19 29 ar
24 11 20 1
25 20 26 ar
26 11 21 1
27 21 22 1
28 13 22 1
29 13 23 1
30 13 24 1
31 24 25 1
32 11 25 1
33 26 27 ar
34 27 28 ar
35 28 29 ar
36 30 31 ar
37 31 32 1
38 31 33 ar
39 33 34 1
@<TRIPOS>SUBSTRUCTURE
1	RES1	1	GROUP	1 ****	RES
