# created with PyMOL 2.5.2
@<TRIPOS>MOLECULE
SOS1_6D55_TargetProtein
34 39 1                 
SMALL
USER_CHARGES
@<TRIPOS>ATOM
1	 CL1	32.197	30.360	27.781	Cl	1	RES1	0.000	
2	  C1	30.958	31.078	18.331	C.3	1	RES1	0.000	
3	  N1	33.966	28.508	23.232	N.2	1	RES1	0.000	
4	  C2	31.882	31.006	19.527	C.2	1	RES1	0.000	
5	  N2	35.612	27.589	21.665	N.pl3	1	RES1	0.000	
6	  C3	31.928	29.901	20.371	C.2	1	RES1	0.000	
7	  N3	37.427	26.636	18.164	N.3	1	RES1	0.000	
8	  C4	32.742	29.851	21.501	C.2	1	RES1	0.000	
9	  N4	36.014	28.157	23.936	N.2	1	RES1	0.000	
10	  C5	32.746	28.624	22.361	C.3	1	RES1	0.000	
11	  N5	37.003	28.731	26.859	N.pl3	1	RES1	0.000	
12	  C6	35.239	28.065	22.898	C.2	1	RES1	0.000	
13	  N6	39.645	28.632	27.998	N.3	1	RES1	0.000	
14	  C7	36.946	27.588	21.087	C.3	1	RES1	0.000	
15	  C8	36.303	26.961	19.878	C.3	1	RES1	0.000	
16	  C9	36.432	27.661	18.522	C.3	1	RES1	0.000	
17	 C10	36.975	25.737	19.244	C.3	1	RES1	0.000	
18	 C11	34.951	26.853	20.604	C.3	1	RES1	0.000	
19	 C12	35.267	28.651	24.976	C.2	1	RES1	0.000	
20	 C13	35.675	28.952	26.305	C.2	1	RES1	0.000	
21	 C14	37.184	28.741	28.315	C.3	1	RES1	0.000	
22	 C15	38.470	28.066	28.721	C.3	1	RES1	0.000	
23	 C16	40.901	27.953	28.430	C.3	1	RES1	0.000	
24	 C48	39.454	28.483	26.551	C.3	1	RES1	0.000	
25	 C49	38.178	29.166	26.076	C.3	1	RES1	0.000	
26	 C50	34.670	29.480	27.125	C.2	1	RES1	0.000	
27	 C51	33.359	29.705	26.675	C.2	1	RES1	0.000	
28	 C52	32.990	29.444	25.372	C.2	1	RES1	0.000	
29	 C53	33.987	28.930	24.547	C.2	1	RES1	0.000	
30	 C54	33.563	30.967	21.786	C.2	1	RES1	0.000	
31	 C55	33.546	32.107	20.937	C.2	1	RES1	0.000	
32	 C56	34.385	33.284	21.272	C.3	1	RES1	0.000	
33	 C57	32.698	32.106	19.841	C.2	1	RES1	0.000	
34	  F1	32.653	33.206	19.059	 F	1	RES1	0.000	
@<TRIPOS>BOND
1 1 27 1
2 2 4 1
3 3 10 1
4 3 12 ar
5 3 29 ar
6 4 6 ar
7 4 33 ar
8 5 12 1
9 5 14 1
10 6 8 ar
11 7 16 1
12 8 10 1
13 8 30 ar
14 9 12 ar
15 14 15 1
16 15 16 1
17 7 17 1
18 15 17 1
19 5 18 1
20 15 18 1
21 9 19 ar
22 19 20 ar
23 19 29 ar
24 11 20 1
25 20 26 ar
26 11 21 1
27 21 22 1
28 13 22 1
29 13 23 1
30 13 24 1
31 24 25 1
32 11 25 1
33 26 27 ar
34 27 28 ar
35 28 29 ar
36 30 31 ar
37 31 32 1
38 31 33 ar
39 33 34 1
@<TRIPOS>SUBSTRUCTURE
1	RES1	1	GROUP	1 ****	RES
