# created with PyMOL 2.5.2
@<TRIPOS>MOLECULE
SOS1_6D55_TargetProtein
34 39 1                 
SMALL
USER_CHARGES
@<TRIPOS>ATOM
1	 CL1	32.131	30.294	27.694	Cl	1	RES1	0.000	
2	  C1	34.354	33.275	21.591	C.3	1	RES1	0.000	
3	  N1	33.978	28.463	23.142	N.2	1	RES1	0.000	
4	  C2	33.518	32.078	21.153	C.2	1	RES1	0.000	
5	  N2	35.669	27.605	21.625	N.pl3	1	RES1	0.000	
6	  C3	33.499	30.896	21.893	C.2	1	RES1	0.000	
7	  N3	36.812	26.011	18.060	N.3	1	RES1	0.000	
8	  C4	32.731	29.800	21.467	C.2	1	RES1	0.000	
9	  N4	36.049	28.169	23.897	N.2	1	RES1	0.000	
10	  C5	32.764	28.535	22.314	C.3	1	RES1	0.000	
11	  N5	36.986	28.784	26.806	N.pl3	1	RES1	0.000	
12	  C6	35.253	28.057	22.849	C.2	1	RES1	0.000	
13	  N6	39.599	28.740	28.041	N.3	1	RES1	0.000	
14	  C7	36.923	27.854	20.977	C.3	1	RES1	0.000	
15	  C8	36.426	26.963	19.849	C.3	1	RES1	0.000	
16	  C9	37.165	25.691	19.468	C.3	1	RES1	0.000	
17	 C10	36.516	27.401	18.413	C.3	1	RES1	0.000	
18	 C11	35.062	26.834	20.531	C.3	1	RES1	0.000	
19	 C12	35.301	28.676	24.928	C.2	1	RES1	0.000	
20	 C13	35.666	28.967	26.242	C.2	1	RES1	0.000	
21	 C14	38.131	29.458	26.165	C.3	1	RES1	0.000	
22	 C15	39.477	28.822	26.562	C.3	1	RES1	0.000	
23	 C16	40.884	28.135	28.412	C.3	1	RES1	0.000	
24	 C49	38.475	27.942	28.613	C.3	1	RES1	0.000	
25	 C50	37.114	28.554	28.281	C.3	1	RES1	0.000	
26	 C51	34.630	29.491	27.060	C.2	1	RES1	0.000	
27	 C52	33.326	29.686	26.625	C.2	1	RES1	0.000	
28	 C53	32.987	29.380	25.300	C.2	1	RES1	0.000	
29	 C54	33.965	28.864	24.484	C.2	1	RES1	0.000	
30	 C55	31.947	29.934	20.309	C.2	1	RES1	0.000	
31	 C56	31.955	31.115	19.580	C.2	1	RES1	0.000	
32	 C57	31.147	31.210	18.319	C.3	1	RES1	0.000	
33	 C58	32.750	32.185	20.007	C.2	1	RES1	0.000	
34	  F1	32.759	33.307	19.289	 F	1	RES1	0.000	
@<TRIPOS>BOND
1 1 27 1
2 2 4 1
3 3 10 1
4 3 12 ar
5 3 29 ar
6 4 6 ar
7 4 33 ar
8 5 12 1
9 5 14 1
10 6 8 ar
11 7 16 1
12 8 10 1
13 8 30 ar
14 9 12 ar
15 11 25 1
16 14 15 1
17 15 16 1
18 7 17 1
19 15 17 1
20 5 18 1
21 15 18 1
22 9 19 ar
23 19 20 ar
24 19 29 ar
25 11 20 1
26 20 26 ar
27 11 21 1
28 21 22 1
29 13 22 1
30 13 23 1
31 13 24 1
32 24 25 1
33 26 27 ar
34 27 28 ar
35 28 29 ar
36 30 31 ar
37 31 32 1
38 31 33 ar
39 33 34 1
@<TRIPOS>SUBSTRUCTURE
1	RES1	1	GROUP	1 ****	RES
