# created with PyMOL 2.5.2
@<TRIPOS>MOLECULE
SOS1_6D55_TargetProtein
34 39 1                 
SMALL
USER_CHARGES
@<TRIPOS>ATOM
1	 CL1	32.166	30.356	27.735	Cl	1	RES1	0.000	
2	  C1	30.985	31.022	18.303	C.3	1	RES1	0.000	
3	  N1	33.995	28.548	23.218	N.2	1	RES1	0.000	
4	  C2	31.899	30.986	19.523	C.2	1	RES1	0.000	
5	  N2	35.705	27.659	21.657	N.pl3	1	RES1	0.000	
6	  C3	31.934	29.881	20.337	C.2	1	RES1	0.000	
7	  N3	36.728	26.251	18.000	N.3	1	RES1	0.000	
8	  C4	32.772	29.837	21.489	C.2	1	RES1	0.000	
9	  N4	36.062	28.247	23.946	N.2	1	RES1	0.000	
10	  C5	32.832	28.596	22.345	C.3	1	RES1	0.000	
11	  N5	36.999	28.835	26.867	N.pl3	1	RES1	0.000	
12	  C6	35.280	28.155	22.902	C.2	1	RES1	0.000	
13	  N6	39.711	28.280	27.763	N.3	1	RES1	0.000	
14	  C7	35.295	27.871	20.295	C.3	1	RES1	0.000	
15	  C8	36.459	26.936	19.938	C.3	1	RES1	0.000	
16	  C9	37.416	27.282	18.836	C.3	1	RES1	0.000	
17	 C10	36.157	25.619	19.218	C.3	1	RES1	0.000	
18	 C11	36.905	26.923	21.393	C.3	1	RES1	0.000	
19	 C12	35.314	28.732	24.989	C.2	1	RES1	0.000	
20	 C13	35.675	29.015	26.330	C.2	1	RES1	0.000	
21	 C14	38.155	29.502	26.192	C.3	1	RES1	0.000	
22	 C15	39.353	29.567	27.136	C.3	1	RES1	0.000	
23	 C16	40.868	28.399	28.651	C.3	1	RES1	0.000	
24	 C50	38.549	27.737	28.476	C.3	1	RES1	0.000	
25	 C51	37.313	27.588	27.582	C.3	1	RES1	0.000	
26	 C52	34.637	29.508	27.134	C.2	1	RES1	0.000	
27	 C53	33.367	29.695	26.667	C.2	1	RES1	0.000	
28	 C54	32.985	29.440	25.363	C.2	1	RES1	0.000	
29	 C55	34.016	28.927	24.520	C.2	1	RES1	0.000	
30	 C56	33.504	30.978	21.795	C.2	1	RES1	0.000	
31	 C57	33.446	32.139	21.011	C.2	1	RES1	0.000	
32	 C58	34.269	33.332	21.353	C.3	1	RES1	0.000	
33	 C59	32.623	32.126	19.876	C.2	1	RES1	0.000	
34	  F1	32.574	33.208	19.107	 F	1	RES1	0.000	
@<TRIPOS>BOND
1 1 27 1
2 2 4 1
3 3 10 1
4 3 12 ar
5 3 29 ar
6 4 6 ar
7 4 33 ar
8 5 12 1
9 5 14 1
10 6 8 ar
11 7 16 1
12 8 10 1
13 8 30 ar
14 9 12 ar
15 11 25 1
16 14 15 1
17 15 16 1
18 7 17 1
19 15 17 1
20 5 18 1
21 15 18 1
22 9 19 ar
23 19 20 ar
24 19 29 ar
25 11 20 1
26 20 26 ar
27 11 21 1
28 21 22 1
29 13 22 1
30 13 23 1
31 13 24 1
32 24 25 1
33 26 27 ar
34 27 28 ar
35 28 29 ar
36 30 31 ar
37 31 32 1
38 31 33 ar
39 33 34 1
@<TRIPOS>SUBSTRUCTURE
1	RES1	1	GROUP	1 ****	RES
