# created with PyMOL 2.5.2
@<TRIPOS>MOLECULE
SOS1_6D55_TargetProtein
34 39 1                 
SMALL
USER_CHARGES
@<TRIPOS>ATOM
1	 CL1	32.280	30.477	27.712	Cl	1	RES1	0.000	
2	  C1	30.901	30.907	18.283	C.3	1	RES1	0.000	
3	  N1	34.061	28.589	23.206	N.2	1	RES1	0.000	
4	  C2	31.802	30.943	19.502	C.2	1	RES1	0.000	
5	  N2	35.731	27.652	21.683	N.pl3	1	RES1	0.000	
6	  C3	31.961	29.842	20.338	C.2	1	RES1	0.000	
7	  N3	36.769	26.185	18.023	N.3	1	RES1	0.000	
8	  C4	32.817	29.888	21.423	C.2	1	RES1	0.000	
9	  N4	36.106	28.156	23.965	N.2	1	RES1	0.000	
10	  C5	32.915	28.648	22.321	C.3	1	RES1	0.000	
11	  N5	37.007	28.679	26.919	N.pl3	1	RES1	0.000	
12	  C6	35.323	28.113	22.899	C.2	1	RES1	0.000	
13	  N6	39.601	28.462	28.203	N.3	1	RES1	0.000	
14	  C7	36.988	27.931	20.998	C.3	1	RES1	0.000	
15	  C8	36.447	27.087	19.856	C.3	1	RES1	0.000	
16	  C9	37.170	25.831	19.414	C.3	1	RES1	0.000	
17	 C10	36.497	27.561	18.444	C.3	1	RES1	0.000	
18	 C11	35.078	26.933	20.564	C.3	1	RES1	0.000	
19	 C12	35.360	28.682	25.004	C.2	1	RES1	0.000	
20	 C13	35.712	28.943	26.324	C.2	1	RES1	0.000	
21	 C14	38.209	29.313	26.270	C.3	1	RES1	0.000	
22	 C15	39.482	28.573	26.713	C.3	1	RES1	0.000	
23	 C16	40.849	27.807	28.551	C.3	1	RES1	0.000	
24	 C51	38.442	27.741	28.724	C.3	1	RES1	0.000	
25	 C52	37.122	28.439	28.364	C.3	1	RES1	0.000	
26	 C53	34.703	29.503	27.147	C.2	1	RES1	0.000	
27	 C54	33.425	29.788	26.647	C.2	1	RES1	0.000	
28	 C55	33.094	29.543	25.338	C.2	1	RES1	0.000	
29	 C56	34.101	28.965	24.524	C.2	1	RES1	0.000	
30	 C57	33.511	31.077	21.736	C.2	1	RES1	0.000	
31	 C58	33.396	32.187	20.898	C.2	1	RES1	0.000	
32	 C59	34.146	33.437	21.198	C.3	1	RES1	0.000	
33	 C60	32.526	32.108	19.779	C.2	1	RES1	0.000	
34	  F1	32.415	33.186	18.979	 F	1	RES1	0.000	
@<TRIPOS>BOND
1 1 27 1
2 2 4 1
3 3 10 1
4 3 12 ar
5 3 29 ar
6 4 6 ar
7 4 33 ar
8 5 12 1
9 5 14 1
10 6 8 ar
11 7 16 1
12 8 10 1
13 8 30 ar
14 9 12 ar
15 11 25 1
16 14 15 1
17 15 16 1
18 7 17 1
19 15 17 1
20 5 18 1
21 15 18 1
22 9 19 ar
23 19 20 ar
24 19 29 ar
25 11 20 1
26 20 26 ar
27 11 21 1
28 21 22 1
29 13 22 1
30 13 23 1
31 13 24 1
32 24 25 1
33 26 27 ar
34 27 28 ar
35 28 29 ar
36 30 31 ar
37 31 32 1
38 31 33 ar
39 33 34 1
@<TRIPOS>SUBSTRUCTURE
1	RES1	1	GROUP	1 ****	RES
