# created with PyMOL 2.5.2
@<TRIPOS>MOLECULE
SOS1_6D55_TargetProtein
34 39 1                 
SMALL
USER_CHARGES
@<TRIPOS>ATOM
1	 CL1	32.145	30.374	27.733	Cl	1	RES1	0.000	
2	  C1	31.058	31.148	18.325	C.3	1	RES1	0.000	
3	  N1	33.979	28.519	23.218	N.2	1	RES1	0.000	
4	  C2	31.903	31.065	19.568	C.2	1	RES1	0.000	
5	  N2	35.658	27.648	21.660	N.pl3	1	RES1	0.000	
6	  C3	31.934	29.934	20.346	C.2	1	RES1	0.000	
7	  N3	36.791	26.009	18.135	N.3	1	RES1	0.000	
8	  C4	32.737	29.856	21.495	C.2	1	RES1	0.000	
9	  N4	36.024	28.198	23.949	N.2	1	RES1	0.000	
10	  C5	32.771	28.589	22.359	C.3	1	RES1	0.000	
11	  N5	36.974	28.819	26.857	N.pl3	1	RES1	0.000	
12	  C6	35.244	28.104	22.886	C.2	1	RES1	0.000	
13	  N6	39.691	28.265	27.729	N.3	1	RES1	0.000	
14	  C7	36.943	27.853	21.044	C.3	1	RES1	0.000	
15	  C8	36.432	26.984	19.913	C.3	1	RES1	0.000	
16	  C9	37.143	25.716	19.530	C.3	1	RES1	0.000	
17	 C10	36.505	27.428	18.466	C.3	1	RES1	0.000	
18	 C11	35.041	26.903	20.573	C.3	1	RES1	0.000	
19	 C12	35.256	28.714	24.971	C.2	1	RES1	0.000	
20	 C13	35.654	29.006	26.303	C.2	1	RES1	0.000	
21	 C14	38.125	29.453	26.175	C.3	1	RES1	0.000	
22	 C15	39.336	29.593	27.110	C.3	1	RES1	0.000	
23	 C16	40.856	28.398	28.605	C.3	1	RES1	0.000	
24	 C45	38.508	27.754	28.466	C.3	1	RES1	0.000	
25	 C46	37.292	27.578	27.580	C.3	1	RES1	0.000	
26	 C47	34.636	29.518	27.121	C.2	1	RES1	0.000	
27	 C48	33.331	29.720	26.650	C.2	1	RES1	0.000	
28	 C49	32.986	29.421	25.373	C.2	1	RES1	0.000	
29	 C50	33.989	28.930	24.549	C.2	1	RES1	0.000	
30	 C51	33.554	30.931	21.794	C.2	1	RES1	0.000	
31	 C52	33.538	32.100	21.038	C.2	1	RES1	0.000	
32	 C53	34.452	33.249	21.383	C.3	1	RES1	0.000	
33	 C54	32.712	32.145	19.907	C.2	1	RES1	0.000	
34	  F1	32.747	33.255	19.133	 F	1	RES1	0.000	
@<TRIPOS>BOND
1 1 27 1
2 2 4 1
3 3 10 1
4 3 12 ar
5 3 29 ar
6 4 6 ar
7 4 33 ar
8 5 12 1
9 5 14 1
10 6 8 ar
11 7 16 1
12 8 10 1
13 8 30 ar
14 9 12 ar
15 14 15 1
16 15 16 1
17 7 17 1
18 15 17 1
19 5 18 1
20 15 18 1
21 9 19 ar
22 19 20 ar
23 19 29 ar
24 11 20 1
25 20 26 ar
26 11 21 1
27 21 22 1
28 13 22 1
29 13 23 1
30 13 24 1
31 24 25 1
32 11 25 1
33 26 27 ar
34 27 28 ar
35 28 29 ar
36 30 31 ar
37 31 32 1
38 31 33 ar
39 33 34 1
@<TRIPOS>SUBSTRUCTURE
1	RES1	1	GROUP	1 ****	RES
