# created with PyMOL 2.5.2
@<TRIPOS>MOLECULE
SOS1_6D55_TargetProtein
34 39 1                 
SMALL
USER_CHARGES
@<TRIPOS>ATOM
1	 CL1	32.136	30.156	27.798	Cl	1	RES1	0.000	
2	  C1	34.304	33.394	21.391	C.3	1	RES1	0.000	
3	  N1	33.977	28.492	23.217	N.2	1	RES1	0.000	
4	  C2	33.527	32.166	21.005	C.2	1	RES1	0.000	
5	  N2	35.660	27.650	21.660	N.pl3	1	RES1	0.000	
6	  C3	33.531	31.016	21.818	C.2	1	RES1	0.000	
7	  N3	36.651	26.311	17.962	N.3	1	RES1	0.000	
8	  C4	32.785	29.903	21.491	C.2	1	RES1	0.000	
9	  N4	36.043	28.197	23.932	N.2	1	RES1	0.000	
10	  C5	32.796	28.624	22.333	C.3	1	RES1	0.000	
11	  N5	36.997	28.777	26.845	N.pl3	1	RES1	0.000	
12	  C6	35.267	28.087	22.884	C.2	1	RES1	0.000	
13	  N6	39.653	28.694	27.996	N.3	1	RES1	0.000	
14	  C7	37.013	27.633	21.135	C.3	1	RES1	0.000	
15	  C8	36.406	26.981	19.921	C.3	1	RES1	0.000	
16	  C9	36.550	27.640	18.539	C.3	1	RES1	0.000	
17	 C10	37.016	25.715	19.290	C.3	1	RES1	0.000	
18	 C11	35.037	26.900	20.596	C.3	1	RES1	0.000	
19	 C12	35.273	28.668	24.997	C.2	1	RES1	0.000	
20	 C13	35.676	28.957	26.319	C.2	1	RES1	0.000	
21	 C14	37.167	28.768	28.328	C.3	1	RES1	0.000	
22	 C15	38.491	28.129	28.713	C.3	1	RES1	0.000	
23	 C16	40.909	28.067	28.416	C.3	1	RES1	0.000	
24	 C46	39.442	28.535	26.557	C.3	1	RES1	0.000	
25	 C47	38.159	29.210	26.052	C.3	1	RES1	0.000	
26	 C48	34.631	29.406	27.163	C.2	1	RES1	0.000	
27	 C49	33.312	29.594	26.703	C.2	1	RES1	0.000	
28	 C50	32.965	29.333	25.384	C.2	1	RES1	0.000	
29	 C51	33.973	28.862	24.549	C.2	1	RES1	0.000	
30	 C52	32.035	29.890	20.316	C.2	1	RES1	0.000	
31	 C53	31.993	31.017	19.489	C.2	1	RES1	0.000	
32	 C54	31.155	31.029	18.241	C.3	1	RES1	0.000	
33	 C55	32.743	32.141	19.843	C.2	1	RES1	0.000	
34	  F1	32.676	33.235	19.066	 F	1	RES1	0.000	
@<TRIPOS>BOND
1 1 27 1
2 2 4 1
3 3 10 1
4 3 12 ar
5 3 29 ar
6 4 6 ar
7 4 33 ar
8 5 12 1
9 5 14 1
10 6 8 ar
11 7 16 1
12 8 10 1
13 8 30 ar
14 9 12 ar
15 14 15 1
16 15 16 1
17 7 17 1
18 15 17 1
19 5 18 1
20 15 18 1
21 9 19 ar
22 19 20 ar
23 19 29 ar
24 11 20 1
25 20 26 ar
26 11 21 1
27 21 22 1
28 13 22 1
29 13 23 1
30 13 24 1
31 24 25 1
32 11 25 1
33 26 27 ar
34 27 28 ar
35 28 29 ar
36 30 31 ar
37 31 32 1
38 31 33 ar
39 33 34 1
@<TRIPOS>SUBSTRUCTURE
1	RES1	1	GROUP	1 ****	RES
