# created with PyMOL 2.5.2
@<TRIPOS>MOLECULE
SOS1_6D55_TargetProtein
34 39 1                 
SMALL
USER_CHARGES
@<TRIPOS>ATOM
1	 CL1	32.246	30.412	27.702	Cl	1	RES1	0.000	
2	  C1	30.776	30.950	18.361	C.3	1	RES1	0.000	
3	  N1	34.082	28.601	23.182	N.2	1	RES1	0.000	
4	  C2	31.703	30.999	19.553	C.2	1	RES1	0.000	
5	  N2	35.723	27.708	21.627	N.pl3	1	RES1	0.000	
6	  C3	31.889	29.861	20.363	C.2	1	RES1	0.000	
7	  N3	37.489	26.030	18.378	N.3	1	RES1	0.000	
8	  C4	32.750	29.882	21.467	C.2	1	RES1	0.000	
9	  N4	36.112	28.197	23.937	N.2	1	RES1	0.000	
10	  C5	32.856	28.656	22.306	C.3	1	RES1	0.000	
11	  N5	37.023	28.704	26.862	N.pl3	1	RES1	0.000	
12	  C6	35.319	28.152	22.870	C.2	1	RES1	0.000	
13	  N6	39.647	28.471	28.082	N.3	1	RES1	0.000	
14	  C7	35.302	27.935	20.264	C.3	1	RES1	0.000	
15	  C8	36.444	27.033	19.884	C.3	1	RES1	0.000	
16	  C9	36.236	25.735	19.084	C.3	1	RES1	0.000	
17	 C10	37.443	27.435	18.780	C.3	1	RES1	0.000	
18	 C11	36.933	26.949	21.328	C.3	1	RES1	0.000	
19	 C12	35.348	28.695	24.969	C.2	1	RES1	0.000	
20	 C13	35.729	28.963	26.301	C.2	1	RES1	0.000	
21	 C14	37.196	28.681	28.313	C.3	1	RES1	0.000	
22	 C15	38.455	27.945	28.745	C.3	1	RES1	0.000	
23	 C16	40.871	27.777	28.503	C.3	1	RES1	0.000	
24	 C48	39.479	28.361	26.586	C.3	1	RES1	0.000	
25	 C49	38.220	29.129	26.110	C.3	1	RES1	0.000	
26	 C50	34.693	29.516	27.112	C.2	1	RES1	0.000	
27	 C51	33.435	29.767	26.640	C.2	1	RES1	0.000	
28	 C52	33.074	29.531	25.319	C.2	1	RES1	0.000	
29	 C53	34.058	28.963	24.494	C.2	1	RES1	0.000	
30	 C54	33.433	31.081	21.746	C.2	1	RES1	0.000	
31	 C55	33.264	32.217	20.954	C.2	1	RES1	0.000	
32	 C56	34.033	33.481	21.220	C.3	1	RES1	0.000	
33	 C57	32.412	32.150	19.838	C.2	1	RES1	0.000	
34	  F1	32.273	33.209	19.068	 F	1	RES1	0.000	
@<TRIPOS>BOND
1 1 27 1
2 2 4 1
3 3 10 1
4 3 12 ar
5 3 29 ar
6 4 6 ar
7 4 33 ar
8 5 12 1
9 5 14 1
10 6 8 ar
11 7 16 1
12 8 10 1
13 8 30 ar
14 9 12 ar
15 14 15 1
16 15 16 1
17 7 17 1
18 15 17 1
19 5 18 1
20 15 18 1
21 9 19 ar
22 19 20 ar
23 19 29 ar
24 11 20 1
25 20 26 ar
26 11 21 1
27 21 22 1
28 13 22 1
29 13 23 1
30 13 24 1
31 24 25 1
32 11 25 1
33 26 27 ar
34 27 28 ar
35 28 29 ar
36 30 31 ar
37 31 32 1
38 31 33 ar
39 33 34 1
@<TRIPOS>SUBSTRUCTURE
1	RES1	1	GROUP	1 ****	RES
