# created with PyMOL 2.5.2
@<TRIPOS>MOLECULE
BRD4_4F3I_TargetProtein
29 32 1                 
SMALL
USER_CHARGES
@<TRIPOS>ATOM
1	 CL1	30.162	48.920	-7.041	Cl	1	RES1	0.000	
2	  C1	22.225	54.501	-5.132	C.3	1	RES1	0.000	
3	  N1	25.349	51.092	-2.902	N.2	1	RES1	0.000	
4	  O1	22.210	53.336	-4.317	O.3	1	RES1	0.000	
5	  S1	27.427	50.576	1.307	S.2	1	RES1	0.000	
6	  C2	23.284	53.142	-3.491	C.2	1	RES1	0.000	
7	  O2	24.276	53.904	-3.459	O.co2	1	RES1	0.000	
8	  C3	23.093	51.915	-2.651	C.3	1	RES1	0.000	
9	  O3	30.076	51.564	2.414	O.2	1	RES1	0.000	
10	  C4	24.382	51.559	-1.892	C.3	1	RES1	0.000	
11	  C5	26.573	50.848	-2.599	C.2	1	RES1	0.000	
12	  N5	25.129	50.071	-0.018	N.2	1	RES1	0.000	
13	  C6	27.479	50.357	-3.682	C.2	1	RES1	0.000	
14	  N6	23.197	49.142	0.521	N.2	1	RES1	0.000	
15	  C7	27.320	50.859	-4.971	C.2	1	RES1	0.000	
16	  N7	23.011	49.933	-0.555	N.2	1	RES1	0.000	
17	  C8	28.136	50.412	-6.028	C.2	1	RES1	0.000	
18	  C9	29.131	49.461	-5.754	C.2	1	RES1	0.000	
19	 C10	29.298	48.964	-4.447	C.2	1	RES1	0.000	
20	 C11	28.500	49.402	-3.433	C.2	1	RES1	0.000	
21	 C12	27.135	50.991	-1.246	C.2	1	RES1	0.000	
22	 C13	26.460	50.523	-0.082	C.2	1	RES1	0.000	
23	 C14	28.704	51.353	0.481	C.2	1	RES1	0.000	
24	 C15	29.864	51.738	1.233	C.2	1	RES1	0.000	
25	 C37	28.424	51.560	-0.860	C.2	1	RES1	0.000	
26	 C38	29.303	52.306	-1.808	C.3	1	RES1	0.000	
27	 C39	24.490	49.219	0.843	C.2	1	RES1	0.000	
28	 C40	25.097	48.390	1.925	C.3	1	RES1	0.000	
29	 C41	24.153	50.499	-0.874	C.2	1	RES1	0.000	
@<TRIPOS>BOND
1 1 18 1
2 2 4 1
3 3 10 1
4 3 11 2
5 4 6 1
6 5 22 ar
7 5 23 ar
8 6 8 1
9 6 7 2
10 8 10 1
11 10 29 1
12 11 13 1
13 13 15 ar
14 14 16 ar
15 15 17 ar
16 17 18 ar
17 18 19 ar
18 19 20 ar
19 13 20 ar
20 11 21 1
21 21 22 ar
22 21 25 ar
23 12 22 1
24 23 24 1
25 23 25 ar
26 9 24 2
27 25 26 1
28 12 27 ar
29 14 27 ar
30 27 28 1
31 12 29 ar
32 16 29 ar
@<TRIPOS>SUBSTRUCTURE
1	RES1	1	GROUP	1 ****	RES
