# created with PyMOL 2.5.2
@<TRIPOS>MOLECULE
SOS1_6D55_TargetProtein
34 39 1                 
SMALL
USER_CHARGES
@<TRIPOS>ATOM
1	 CL1	32.159	30.399	27.730	Cl	1	RES1	0.000	
2	  C1	34.241	33.375	21.422	C.3	1	RES1	0.000	
3	  N1	33.998	28.531	23.221	N.2	1	RES1	0.000	
4	  C2	33.459	32.128	21.047	C.2	1	RES1	0.000	
5	  N2	35.654	27.612	21.690	N.pl3	1	RES1	0.000	
6	  C3	33.510	30.985	21.841	C.2	1	RES1	0.000	
7	  N3	36.772	26.398	17.969	N.3	1	RES1	0.000	
8	  C4	32.761	29.856	21.499	C.2	1	RES1	0.000	
9	  N4	36.051	28.204	23.919	N.2	1	RES1	0.000	
10	  C5	32.795	28.596	22.355	C.3	1	RES1	0.000	
11	  N5	36.998	28.837	26.858	N.pl3	1	RES1	0.000	
12	  C6	35.272	28.079	22.894	C.2	1	RES1	0.000	
13	  N6	39.709	28.297	27.742	N.3	1	RES1	0.000	
14	  C7	35.074	27.471	20.361	C.3	1	RES1	0.000	
15	  C8	36.392	26.863	19.948	C.3	1	RES1	0.000	
16	  C9	36.409	25.577	19.146	C.3	1	RES1	0.000	
17	 C10	37.233	27.492	18.841	C.3	1	RES1	0.000	
18	 C11	36.903	26.872	21.395	C.3	1	RES1	0.000	
19	 C12	35.297	28.702	24.978	C.2	1	RES1	0.000	
20	 C13	35.681	29.014	26.295	C.2	1	RES1	0.000	
21	 C14	38.129	29.471	26.156	C.3	1	RES1	0.000	
22	 C15	39.362	29.591	27.091	C.3	1	RES1	0.000	
23	 C16	40.874	28.457	28.602	C.3	1	RES1	0.000	
24	 C47	38.537	27.811	28.493	C.3	1	RES1	0.000	
25	 C48	37.282	27.634	27.624	C.3	1	RES1	0.000	
26	 C49	34.643	29.539	27.116	C.2	1	RES1	0.000	
27	 C50	33.364	29.717	26.655	C.2	1	RES1	0.000	
28	 C51	33.005	29.434	25.362	C.2	1	RES1	0.000	
29	 C52	34.007	28.928	24.539	C.2	1	RES1	0.000	
30	 C53	32.015	29.878	20.336	C.2	1	RES1	0.000	
31	 C54	31.950	31.005	19.494	C.2	1	RES1	0.000	
32	 C55	31.105	31.037	18.277	C.3	1	RES1	0.000	
33	 C56	32.670	32.141	19.910	C.2	1	RES1	0.000	
34	  F1	32.631	33.242	19.133	 F	1	RES1	0.000	
@<TRIPOS>BOND
1 1 27 1
2 2 4 1
3 3 10 1
4 3 12 ar
5 3 29 ar
6 4 6 ar
7 4 33 ar
8 5 12 1
9 5 14 1
10 6 8 ar
11 7 16 1
12 8 10 1
13 8 30 ar
14 9 12 ar
15 14 15 1
16 15 16 1
17 7 17 1
18 15 17 1
19 5 18 1
20 15 18 1
21 9 19 ar
22 19 20 ar
23 19 29 ar
24 11 20 1
25 20 26 ar
26 11 21 1
27 21 22 1
28 13 22 1
29 13 23 1
30 13 24 1
31 24 25 1
32 11 25 1
33 26 27 ar
34 27 28 ar
35 28 29 ar
36 30 31 ar
37 31 32 1
38 31 33 ar
39 33 34 1
@<TRIPOS>SUBSTRUCTURE
1	RES1	1	GROUP	1 ****	RES
