# created with PyMOL 2.5.2
@<TRIPOS>MOLECULE
SOS1_6D55_TargetProtein
34 39 1                 
SMALL
USER_CHARGES
@<TRIPOS>ATOM
1	 CL1	32.127	30.403	27.700	Cl	1	RES1	0.000	
2	  C1	31.077	31.173	18.346	C.3	1	RES1	0.000	
3	  N1	33.979	28.511	23.222	N.2	1	RES1	0.000	
4	  C2	31.962	31.045	19.560	C.2	1	RES1	0.000	
5	  N2	35.667	27.620	21.665	N.pl3	1	RES1	0.000	
6	  C3	31.956	29.901	20.334	C.2	1	RES1	0.000	
7	  N3	36.804	25.984	18.146	N.3	1	RES1	0.000	
8	  C4	32.762	29.845	21.478	C.2	1	RES1	0.000	
9	  N4	36.024	28.190	23.934	N.2	1	RES1	0.000	
10	  C5	32.779	28.587	22.355	C.3	1	RES1	0.000	
11	  N5	36.952	28.844	26.844	N.pl3	1	RES1	0.000	
12	  C6	35.247	28.085	22.887	C.2	1	RES1	0.000	
13	  N6	39.688	28.282	27.700	N.3	1	RES1	0.000	
14	  C7	36.920	27.867	21.029	C.3	1	RES1	0.000	
15	  C8	36.419	26.959	19.898	C.3	1	RES1	0.000	
16	  C9	36.518	27.369	18.459	C.3	1	RES1	0.000	
17	 C10	37.169	25.695	19.528	C.3	1	RES1	0.000	
18	 C11	35.062	26.863	20.584	C.3	1	RES1	0.000	
19	 C12	35.261	28.732	24.980	C.2	1	RES1	0.000	
20	 C13	35.650	29.007	26.308	C.2	1	RES1	0.000	
21	 C14	38.107	29.505	26.194	C.3	1	RES1	0.000	
22	 C15	39.322	29.590	27.129	C.3	1	RES1	0.000	
23	 C16	40.871	28.391	28.563	C.3	1	RES1	0.000	
24	 C48	38.513	27.726	28.452	C.3	1	RES1	0.000	
25	 C49	37.274	27.575	27.529	C.3	1	RES1	0.000	
26	 C50	34.632	29.537	27.120	C.2	1	RES1	0.000	
27	 C51	33.329	29.765	26.637	C.2	1	RES1	0.000	
28	 C52	32.967	29.451	25.343	C.2	1	RES1	0.000	
29	 C53	33.995	28.911	24.511	C.2	1	RES1	0.000	
30	 C54	33.548	30.926	21.837	C.2	1	RES1	0.000	
31	 C55	33.557	32.098	21.080	C.2	1	RES1	0.000	
32	 C56	34.382	33.287	21.468	C.3	1	RES1	0.000	
33	 C57	32.720	32.152	19.916	C.2	1	RES1	0.000	
34	  F1	32.705	33.298	19.210	 F	1	RES1	0.000	
@<TRIPOS>BOND
1 1 27 1
2 2 4 1
3 3 10 1
4 3 12 ar
5 3 29 ar
6 4 6 ar
7 4 33 ar
8 5 12 1
9 5 14 1
10 6 8 ar
11 7 16 1
12 8 10 1
13 8 30 ar
14 9 12 ar
15 14 15 1
16 15 16 1
17 7 17 1
18 15 17 1
19 5 18 1
20 15 18 1
21 9 19 ar
22 19 20 ar
23 19 29 ar
24 11 20 1
25 20 26 ar
26 11 21 1
27 21 22 1
28 13 22 1
29 13 23 1
30 13 24 1
31 24 25 1
32 11 25 1
33 26 27 ar
34 27 28 ar
35 28 29 ar
36 30 31 ar
37 31 32 1
38 31 33 ar
39 33 34 1
@<TRIPOS>SUBSTRUCTURE
1	RES1	1	GROUP	1 ****	RES
