# created with PyMOL 2.5.2
@<TRIPOS>MOLECULE
SOS1_6D55_TargetProtein
34 39 1                 
SMALL
USER_CHARGES
@<TRIPOS>ATOM
1	 CL1	32.122	30.150	27.824	Cl	1	RES1	0.000	
2	  C1	34.389	33.341	21.397	C.3	1	RES1	0.000	
3	  N1	33.961	28.458	23.221	N.2	1	RES1	0.000	
4	  C2	33.581	32.152	21.009	C.2	1	RES1	0.000	
5	  N2	35.625	27.620	21.647	N.pl3	1	RES1	0.000	
6	  C3	33.557	30.994	21.815	C.2	1	RES1	0.000	
7	  N3	36.611	26.259	17.961	N.3	1	RES1	0.000	
8	  C4	32.799	29.863	21.502	C.2	1	RES1	0.000	
9	  N4	36.033	28.199	23.915	N.2	1	RES1	0.000	
10	  C5	32.785	28.596	22.341	C.3	1	RES1	0.000	
11	  N5	36.988	28.789	26.831	N.pl3	1	RES1	0.000	
12	  C6	35.243	28.076	22.880	C.2	1	RES1	0.000	
13	  N6	39.624	28.746	28.076	N.3	1	RES1	0.000	
14	  C7	36.966	27.642	21.112	C.3	1	RES1	0.000	
15	  C8	36.376	26.961	19.893	C.3	1	RES1	0.000	
16	  C9	36.473	27.612	18.508	C.3	1	RES1	0.000	
17	 C10	37.009	25.714	19.281	C.3	1	RES1	0.000	
18	 C11	35.008	26.854	20.579	C.3	1	RES1	0.000	
19	 C12	35.284	28.688	24.964	C.2	1	RES1	0.000	
20	 C13	35.665	28.965	26.299	C.2	1	RES1	0.000	
21	 C14	38.109	29.474	26.195	C.3	1	RES1	0.000	
22	 C15	39.474	28.874	26.598	C.3	1	RES1	0.000	
23	 C16	40.923	28.151	28.409	C.3	1	RES1	0.000	
24	 C47	38.524	27.924	28.608	C.3	1	RES1	0.000	
25	 C48	37.134	28.534	28.274	C.3	1	RES1	0.000	
26	 C49	34.633	29.412	27.143	C.2	1	RES1	0.000	
27	 C50	33.330	29.590	26.693	C.2	1	RES1	0.000	
28	 C51	32.976	29.303	25.383	C.2	1	RES1	0.000	
29	 C52	33.973	28.832	24.536	C.2	1	RES1	0.000	
30	 C53	32.025	29.907	20.317	C.2	1	RES1	0.000	
31	 C54	32.039	31.042	19.483	C.2	1	RES1	0.000	
32	 C55	31.175	31.074	18.287	C.3	1	RES1	0.000	
33	 C56	32.776	32.138	19.871	C.2	1	RES1	0.000	
34	  F1	32.760	33.245	19.094	 F	1	RES1	0.000	
@<TRIPOS>BOND
1 1 27 1
2 2 4 1
3 3 10 1
4 3 12 ar
5 3 29 ar
6 4 6 ar
7 4 33 ar
8 5 12 1
9 5 14 1
10 6 8 ar
11 7 16 1
12 8 10 1
13 8 30 ar
14 9 12 ar
15 14 15 1
16 15 16 1
17 7 17 1
18 15 17 1
19 5 18 1
20 15 18 1
21 9 19 ar
22 19 20 ar
23 19 29 ar
24 11 20 1
25 20 26 ar
26 11 21 1
27 21 22 1
28 13 22 1
29 13 23 1
30 13 24 1
31 24 25 1
32 11 25 1
33 26 27 ar
34 27 28 ar
35 28 29 ar
36 30 31 ar
37 31 32 1
38 31 33 ar
39 33 34 1
@<TRIPOS>SUBSTRUCTURE
1	RES1	1	GROUP	1 ****	RES
