# created with PyMOL 2.5.2
@<TRIPOS>MOLECULE
SOS1_6D55_TargetProtein
34 39 1                 
SMALL
USER_CHARGES
@<TRIPOS>ATOM
1	 CL1	32.121	30.250	27.779	Cl	1	RES1	0.000	
2	  C1	31.014	31.051	18.308	C.3	1	RES1	0.000	
3	  N1	33.987	28.513	23.206	N.2	1	RES1	0.000	
4	  C2	31.891	31.011	19.570	C.2	1	RES1	0.000	
5	  N2	35.684	27.666	21.653	N.pl3	1	RES1	0.000	
6	  C3	31.932	29.895	20.361	C.2	1	RES1	0.000	
7	  N3	36.838	26.576	17.932	N.3	1	RES1	0.000	
8	  C4	32.746	29.839	21.508	C.2	1	RES1	0.000	
9	  N4	36.060	28.226	23.934	N.2	1	RES1	0.000	
10	  C5	32.790	28.584	22.337	C.3	1	RES1	0.000	
11	  N5	36.993	28.819	26.852	N.pl3	1	RES1	0.000	
12	  C6	35.279	28.107	22.871	C.2	1	RES1	0.000	
13	  N6	39.595	28.219	27.985	N.3	1	RES1	0.000	
14	  C7	35.120	27.615	20.308	C.3	1	RES1	0.000	
15	  C8	36.420	26.980	19.921	C.3	1	RES1	0.000	
16	  C9	36.447	25.720	19.067	C.3	1	RES1	0.000	
17	 C10	37.280	27.649	18.844	C.3	1	RES1	0.000	
18	 C11	36.907	26.965	21.337	C.3	1	RES1	0.000	
19	 C12	35.305	28.710	24.969	C.2	1	RES1	0.000	
20	 C13	35.689	28.979	26.320	C.2	1	RES1	0.000	
21	 C14	37.157	28.749	28.314	C.3	1	RES1	0.000	
22	 C15	38.625	29.070	28.702	C.3	1	RES1	0.000	
23	 C16	40.977	28.510	28.419	C.3	1	RES1	0.000	
24	 C48	39.436	28.412	26.518	C.3	1	RES1	0.000	
25	 C49	37.996	28.089	26.049	C.3	1	RES1	0.000	
26	 C50	34.626	29.462	27.121	C.2	1	RES1	0.000	
27	 C51	33.327	29.629	26.683	C.2	1	RES1	0.000	
28	 C52	32.972	29.341	25.384	C.2	1	RES1	0.000	
29	 C53	33.979	28.900	24.533	C.2	1	RES1	0.000	
30	 C54	33.519	30.953	21.796	C.2	1	RES1	0.000	
31	 C55	33.524	32.099	21.029	C.2	1	RES1	0.000	
32	 C56	34.357	33.285	21.344	C.3	1	RES1	0.000	
33	 C57	32.694	32.109	19.900	C.2	1	RES1	0.000	
34	  F1	32.659	33.195	19.093	 F	1	RES1	0.000	
@<TRIPOS>BOND
1 1 27 1
2 2 4 1
3 3 10 1
4 3 12 ar
5 3 29 ar
6 4 6 ar
7 4 33 ar
8 5 12 1
9 5 14 1
10 6 8 ar
11 7 16 1
12 8 10 1
13 8 30 ar
14 9 12 ar
15 14 15 1
16 15 16 1
17 7 17 1
18 15 17 1
19 5 18 1
20 15 18 1
21 9 19 ar
22 19 20 ar
23 19 29 ar
24 11 20 1
25 20 26 ar
26 11 21 1
27 21 22 1
28 13 22 1
29 13 23 1
30 13 24 1
31 24 25 1
32 11 25 1
33 26 27 ar
34 27 28 ar
35 28 29 ar
36 30 31 ar
37 31 32 1
38 31 33 ar
39 33 34 1
@<TRIPOS>SUBSTRUCTURE
1	RES1	1	GROUP	1 ****	RES
