# created with PyMOL 2.5.2
@<TRIPOS>MOLECULE
SOS1_6D55_TargetProtein
34 39 1                 
SMALL
USER_CHARGES
@<TRIPOS>ATOM
1	 CL1	32.144	30.165	27.797	Cl	1	RES1	0.000	
2	  C1	31.076	31.107	18.310	C.3	1	RES1	0.000	
3	  N1	33.965	28.479	23.225	N.2	1	RES1	0.000	
4	  C2	31.968	31.044	19.509	C.2	1	RES1	0.000	
5	  N2	35.646	27.617	21.664	N.pl3	1	RES1	0.000	
6	  C3	32.021	29.915	20.334	C.2	1	RES1	0.000	
7	  N3	36.631	26.261	17.984	N.3	1	RES1	0.000	
8	  C4	32.803	29.872	21.469	C.2	1	RES1	0.000	
9	  N4	36.035	28.185	23.916	N.2	1	RES1	0.000	
10	  C5	32.824	28.608	22.334	C.3	1	RES1	0.000	
11	  N5	36.967	28.774	26.857	N.pl3	1	RES1	0.000	
12	  C6	35.275	28.070	22.879	C.2	1	RES1	0.000	
13	  N6	39.620	28.745	28.056	N.3	1	RES1	0.000	
14	  C7	37.003	27.632	21.133	C.3	1	RES1	0.000	
15	  C8	36.399	26.959	19.895	C.3	1	RES1	0.000	
16	  C9	36.993	25.736	19.302	C.3	1	RES1	0.000	
17	 C10	36.478	27.639	18.521	C.3	1	RES1	0.000	
18	 C11	35.036	26.867	20.583	C.3	1	RES1	0.000	
19	 C12	35.276	28.641	24.987	C.2	1	RES1	0.000	
20	 C13	35.669	28.949	26.321	C.2	1	RES1	0.000	
21	 C14	38.124	29.446	26.190	C.3	1	RES1	0.000	
22	 C15	39.464	28.831	26.595	C.3	1	RES1	0.000	
23	 C16	40.928	28.150	28.403	C.3	1	RES1	0.000	
24	 C49	38.505	27.926	28.607	C.3	1	RES1	0.000	
25	 C50	37.141	28.555	28.301	C.3	1	RES1	0.000	
26	 C51	34.618	29.391	27.141	C.2	1	RES1	0.000	
27	 C52	33.309	29.591	26.699	C.2	1	RES1	0.000	
28	 C53	32.955	29.310	25.372	C.2	1	RES1	0.000	
29	 C54	33.981	28.841	24.541	C.2	1	RES1	0.000	
30	 C55	33.628	30.988	21.775	C.2	1	RES1	0.000	
31	 C56	33.593	32.142	20.973	C.2	1	RES1	0.000	
32	 C57	34.431	33.352	21.327	C.3	1	RES1	0.000	
33	 C58	32.750	32.135	19.842	C.2	1	RES1	0.000	
34	  F1	32.691	33.258	19.104	 F	1	RES1	0.000	
@<TRIPOS>BOND
1 1 27 1
2 2 4 1
3 3 10 1
4 3 12 ar
5 3 29 ar
6 4 6 ar
7 4 33 ar
8 5 12 1
9 5 14 1
10 6 8 ar
11 7 16 1
12 8 10 1
13 8 30 ar
14 9 12 ar
15 11 25 1
16 14 15 1
17 15 16 1
18 7 17 1
19 15 17 1
20 5 18 1
21 15 18 1
22 9 19 ar
23 19 20 ar
24 19 29 ar
25 11 20 1
26 20 26 ar
27 11 21 1
28 21 22 1
29 13 22 1
30 13 23 1
31 13 24 1
32 24 25 1
33 26 27 ar
34 27 28 ar
35 28 29 ar
36 30 31 ar
37 31 32 1
38 31 33 ar
39 33 34 1
@<TRIPOS>SUBSTRUCTURE
1	RES1	1	GROUP	1 ****	RES
