# created with PyMOL 2.5.2
@<TRIPOS>MOLECULE
CDK2_6GUE_TargetProtein
26 28 1                 
SMALL
USER_CHARGES
@<TRIPOS>ATOM
1	  S1	-2.414	-25.710	24.305	S.O2	1	RES1	0.000	
2	  N5	-7.897	-23.254	24.528	N.pl3	1	RES1	0.000	
3	  N6	-9.954	-22.349	23.898	N.2	1	RES1	0.000	
4	  O6	-1.832	-25.549	25.636	O.2	1	RES1	0.000	
5	  N7	-7.421	-17.845	20.105	N.2	1	RES1	0.000	
6	  O7	-2.529	-27.019	23.696	O.2	1	RES1	0.000	
7	  N8	-6.708	-19.851	20.707	N.2	1	RES1	0.000	
8	  N9	-7.971	-21.500	22.860	N.2	1	RES1	0.000	
9	 C24	-1.502	-24.656	23.189	C.3	1	RES1	0.000	
10	 C25	-4.074	-24.957	24.350	C.2	1	RES1	0.000	
11	 C26	-4.907	-25.203	25.435	C.2	1	RES1	0.000	
12	 C27	-6.148	-24.625	25.481	C.2	1	RES1	0.000	
13	 C28	-6.609	-23.781	24.440	C.2	1	RES1	0.000	
14	 C29	-8.615	-22.314	23.736	C.2	1	RES1	0.000	
15	 C30	-10.671	-21.463	23.188	C.2	1	RES1	0.000	
16	 C31	-10.088	-20.568	22.272	C.2	1	RES1	0.000	
17	 C32	-8.732	-20.657	22.127	C.2	1	RES1	0.000	
18	 C33	-7.972	-19.725	21.234	C.2	1	RES1	0.000	
19	 C34	-8.388	-18.486	20.822	C.2	1	RES1	0.000	
20	 C35	-6.407	-18.658	20.059	C.2	1	RES1	0.000	
21	 C36	-5.121	-18.334	19.402	C.3	1	RES1	0.000	
22	 C37	-5.881	-21.100	20.655	C.3	1	RES1	0.000	
23	 C38	-4.525	-20.974	21.346	C.3	1	RES1	0.000	
24	 C39	-5.767	-21.674	19.240	C.3	1	RES1	0.000	
25	 C40	-5.730	-23.558	23.345	C.2	1	RES1	0.000	
26	 C41	-4.478	-24.138	23.293	C.2	1	RES1	0.000	
@<TRIPOS>BOND
1 1 4 2
2 1 6 2
3 1 9 1
4 1 10 1
5 10 11 ar
6 10 26 ar
7 11 12 ar
8 12 13 ar
9 2 13 1
10 13 25 ar
11 2 14 1
12 3 14 ar
13 8 14 ar
14 3 15 ar
15 15 16 ar
16 16 17 ar
17 8 17 ar
18 17 18 1
19 7 18 ar
20 18 19 ar
21 5 19 ar
22 5 20 ar
23 7 20 ar
24 20 21 1
25 7 22 1
26 22 23 1
27 22 24 1
28 25 26 ar
@<TRIPOS>SUBSTRUCTURE
1	RES1	1	GROUP	1 ****	RES
