# created with PyMOL 2.5.2
@<TRIPOS>MOLECULE
KRAS_6USZ_TargetProtein
47 54 1                 
SMALL
USER_CHARGES
@<TRIPOS>ATOM
1	 CL1	19.866	5.832	-23.287	Cl	1	RES1	0.000	
2	  N4	26.092	9.792	-22.537	N.3	1	RES1	0.000	
3	  N5	22.582	5.785	-22.637	N.2	1	RES1	0.000	
4	  N6	20.303	2.918	-23.231	N.pl3	1	RES1	0.000	
5	  O6	24.263	7.305	-22.115	O.3	1	RES1	0.000	
6	  N7	25.139	2.704	-21.387	N.pl3	1	RES1	0.000	
7	  O7	25.103	-1.906	-22.779	O.3	1	RES1	0.000	
8	  N8	25.951	0.074	-21.901	N.3	1	RES1	0.000	
9	  N9	29.449	-0.904	-23.085	N.1	1	RES1	0.000	
10	 N10	22.511	-0.956	-18.631	N.3	1	RES1	0.000	
11	 N11	24.656	4.984	-21.712	N.2	1	RES1	0.000	
12	 C21	27.439	9.722	-23.103	C.3	1	RES1	0.000	
13	 C22	25.799	11.144	-22.056	C.3	1	RES1	0.000	
14	 C23	24.524	10.913	-21.236	C.3	1	RES1	0.000	
15	 C24	24.649	9.524	-20.689	C.3	1	RES1	0.000	
16	 C25	25.897	8.908	-21.371	C.3	1	RES1	0.000	
17	 C26	25.666	7.451	-21.772	C.3	1	RES1	0.000	
18	 C27	23.814	5.951	-22.159	C.2	1	RES1	0.000	
19	 C28	22.118	4.500	-22.649	C.2	1	RES1	0.000	
20	 C29	22.901	3.408	-22.213	C.2	1	RES1	0.000	
21	 C30	22.307	2.028	-22.207	C.3	1	RES1	0.000	
22	 C31	20.805	2.027	-22.190	C.3	1	RES1	0.000	
23	 C32	18.989	2.714	-23.721	C.2	1	RES1	0.000	
24	 C33	18.576	1.386	-23.978	C.2	1	RES1	0.000	
25	 C34	17.303	1.097	-24.426	C.2	1	RES1	0.000	
26	 C35	16.386	2.081	-24.603	C.2	1	RES1	0.000	
27	 C36	16.743	3.428	-24.379	C.2	1	RES1	0.000	
28	 C37	15.759	4.410	-24.594	C.2	1	RES1	0.000	
29	 C38	16.057	5.771	-24.393	C.2	1	RES1	0.000	
30	 C39	17.341	6.121	-23.970	C.2	1	RES1	0.000	
31	 C40	18.335	5.149	-23.752	C.2	1	RES1	0.000	
32	 C41	18.058	3.781	-23.913	C.2	1	RES1	0.000	
33	 C42	20.706	4.339	-23.096	C.3	1	RES1	0.000	
34	 C43	24.201	3.735	-21.798	C.2	1	RES1	0.000	
35	 C44	26.309	2.465	-22.252	C.3	1	RES1	0.000	
36	 C45	26.959	1.138	-21.890	C.3	1	RES1	0.000	
37	 C46	25.934	-1.016	-22.804	C.3	1	RES1	0.000	
38	 C47	26.996	-1.071	-23.837	C.3	1	RES1	0.000	
39	 C48	28.344	-0.975	-23.431	C.1	1	RES1	0.000	
40	 C49	26.638	-1.272	-25.127	C.3	1	RES1	0.000	
41	 C50	25.297	-1.411	-25.703	C.3	1	RES1	0.000	
42	 C51	24.475	-2.642	-25.441	C.3	1	RES1	0.000	
43	 C52	25.056	-2.392	-26.783	C.3	1	RES1	0.000	
44	 C53	24.788	0.249	-20.955	C.3	1	RES1	0.000	
45	 C54	24.835	-0.815	-19.850	C.3	1	RES1	0.000	
46	 C55	23.536	-0.897	-19.180	C.3	1	RES1	0.000	
47	 C56	24.723	1.653	-20.402	C.3	1	RES1	0.000	
@<TRIPOS>BOND
1 1 31 1
2 1 33 1
3 10 46 1
4 11 18 ar
5 11 34 ar
6 2 12 1
7 2 13 1
8 13 14 1
9 14 15 1
10 15 16 1
11 2 16 1
12 16 17 1
13 5 17 1
14 3 18 ar
15 5 18 1
16 3 19 ar
17 19 20 ar
18 19 33 1
19 20 21 1
20 20 34 ar
21 21 22 1
22 4 22 1
23 4 23 1
24 23 24 ar
25 23 32 ar
26 24 25 ar
27 25 26 ar
28 26 27 ar
29 27 28 ar
30 27 32 ar
31 28 29 ar
32 29 30 ar
33 30 31 ar
34 31 32 ar
35 4 33 1
36 6 34 1
37 6 35 1
38 35 36 1
39 8 36 1
40 7 37 1
41 8 37 1
42 37 38 1
43 38 39 1
44 38 40 1
45 9 39 3
46 40 41 1
47 41 42 1
48 41 43 1
49 42 43 1
50 8 44 1
51 44 45 1
52 44 47 1
53 45 46 1
54 6 47 1
@<TRIPOS>SUBSTRUCTURE
1	RES1	1	GROUP	1 ****	RES
