# created with PyMOL 2.5.2
@<TRIPOS>MOLECULE
CCR9_5LWE_TargetProtein
30 32 1                 
SMALL
USER_CHARGES
@<TRIPOS>ATOM
1	 CL1	175.543	71.886	50.858	Cl	1	RES1	0.000	
2	  S1	175.097	76.789	55.790	S.O2	1	RES1	0.000	
3	  N5	175.317	76.896	54.092	N.pl3	1	RES1	0.000	
4	  N6	171.847	79.716	51.576	N.2	1	RES1	0.000	
5	  O9	176.173	77.465	50.520	O.2	1	RES1	0.000	
6	 O10	175.778	75.618	56.326	O.2	1	RES1	0.000	
7	 O11	175.355	78.094	56.374	O.2	1	RES1	0.000	
8	 O12	170.855	80.508	51.657	O.3	1	RES1	0.000	
9	 C27	171.882	78.554	52.282	C.2	1	RES1	0.000	
10	 C28	172.984	77.687	52.198	C.2	1	RES1	0.000	
11	 C29	174.029	77.984	51.321	C.2	1	RES1	0.000	
12	 C30	175.238	77.110	51.214	C.2	1	RES1	0.000	
13	 C31	175.326	75.778	51.898	C.2	1	RES1	0.000	
14	 C32	175.401	74.579	51.144	C.2	1	RES1	0.000	
15	 C33	175.466	73.345	51.794	C.2	1	RES1	0.000	
16	 C34	175.492	73.295	53.171	C.2	1	RES1	0.000	
17	 C35	175.462	74.450	53.912	C.2	1	RES1	0.000	
18	 C36	175.384	75.693	53.301	C.2	1	RES1	0.000	
19	 C37	173.311	76.506	55.906	C.2	1	RES1	0.000	
20	 C38	172.446	77.589	55.902	C.2	1	RES1	0.000	
21	 C39	171.071	77.392	56.023	C.2	1	RES1	0.000	
22	 C40	170.551	76.085	56.183	C.2	1	RES1	0.000	
23	 C41	169.049	75.836	56.349	C.3	1	RES1	0.000	
24	 C42	168.533	74.766	55.374	C.3	1	RES1	0.000	
25	 C43	168.754	75.299	57.771	C.3	1	RES1	0.000	
26	 C44	168.149	77.068	56.146	C.3	1	RES1	0.000	
27	 C45	171.463	74.989	56.216	C.2	1	RES1	0.000	
28	 C46	172.831	75.203	56.100	C.2	1	RES1	0.000	
29	 C47	173.998	79.165	50.614	C.2	1	RES1	0.000	
30	 C48	172.905	80.036	50.725	C.2	1	RES1	0.000	
@<TRIPOS>BOND
1 1 15 1
2 2 3 1
3 2 6 2
4 2 7 2
5 2 19 1
6 4 8 1
7 4 9 ar
8 9 10 ar
9 10 11 ar
10 11 12 1
11 11 29 ar
12 5 12 2
13 12 13 1
14 13 14 ar
15 13 18 ar
16 14 15 ar
17 15 16 ar
18 16 17 ar
19 17 18 ar
20 3 18 1
21 19 20 ar
22 19 28 ar
23 20 21 ar
24 21 22 ar
25 22 23 1
26 22 27 ar
27 23 24 1
28 23 25 1
29 23 26 1
30 27 28 ar
31 29 30 ar
32 4 30 ar
@<TRIPOS>SUBSTRUCTURE
1	RES1	1	GROUP	1 ****	RES
