# created with PyMOL 2.5.2
@<TRIPOS>MOLECULE
BRD4_4F3I_TargetProtein
29 32 1                 
SMALL
USER_CHARGES
@<TRIPOS>ATOM
1	 CL1	30.162	48.912	-7.059	Cl	1	RES1	0.000	
2	  C1	22.235	54.512	-5.109	C.3	1	RES1	0.000	
3	  N1	25.345	51.093	-2.898	N.2	1	RES1	0.000	
4	  O1	22.203	53.341	-4.291	O.3	1	RES1	0.000	
5	  S1	27.436	50.578	1.325	S.2	1	RES1	0.000	
6	  C2	23.276	53.164	-3.496	C.2	1	RES1	0.000	
7	  O2	24.265	53.884	-3.452	O.co2	1	RES1	0.000	
8	  C3	23.097	51.924	-2.637	C.3	1	RES1	0.000	
9	  O3	30.861	52.273	0.780	O.2	1	RES1	0.000	
10	  C4	24.373	51.568	-1.902	C.3	1	RES1	0.000	
11	  C5	26.587	50.857	-2.611	C.2	1	RES1	0.000	
12	  C6	27.511	50.348	-3.687	C.2	1	RES1	0.000	
13	  N6	25.123	50.066	-0.040	N.2	1	RES1	0.000	
14	  C7	27.332	50.837	-4.988	C.2	1	RES1	0.000	
15	  N7	23.208	49.136	0.524	N.2	1	RES1	0.000	
16	  C8	28.153	50.407	-6.010	C.2	1	RES1	0.000	
17	  N8	23.001	49.937	-0.561	N.2	1	RES1	0.000	
18	  C9	29.155	49.442	-5.749	C.2	1	RES1	0.000	
19	 C10	29.312	48.952	-4.478	C.2	1	RES1	0.000	
20	 C11	28.494	49.393	-3.434	C.2	1	RES1	0.000	
21	 C12	27.107	50.990	-1.245	C.2	1	RES1	0.000	
22	 C13	26.443	50.513	-0.102	C.2	1	RES1	0.000	
23	 C14	28.696	51.368	0.488	C.2	1	RES1	0.000	
24	 C15	29.848	51.726	1.233	C.2	1	RES1	0.000	
25	 C32	28.398	51.580	-0.859	C.2	1	RES1	0.000	
26	 C33	29.292	52.319	-1.806	C.3	1	RES1	0.000	
27	 C34	24.495	49.229	0.842	C.2	1	RES1	0.000	
28	 C35	25.111	48.411	1.932	C.3	1	RES1	0.000	
29	 C36	24.152	50.482	-0.861	C.2	1	RES1	0.000	
@<TRIPOS>BOND
1 1 18 1
2 3 10 1
3 3 11 2
4 2 4 1
5 4 6 1
6 5 22 ar
7 5 23 ar
8 6 8 1
9 6 7 2
10 8 10 1
11 11 12 1
12 12 14 ar
13 14 16 ar
14 15 17 ar
15 16 18 ar
16 18 19 ar
17 19 20 ar
18 12 20 ar
19 11 21 1
20 21 22 ar
21 21 25 ar
22 13 22 1
23 23 24 1
24 23 25 ar
25 9 24 2
26 25 26 1
27 13 27 ar
28 15 27 ar
29 27 28 1
30 10 29 1
31 13 29 ar
32 17 29 ar
@<TRIPOS>SUBSTRUCTURE
1	RES1	1	GROUP	1 ****	RES
