# created with PyMOL 2.5.2
@<TRIPOS>MOLECULE
BCL2_4LVT_TargetProtein
65 71 1                 
SMALL
USER_CHARGES
@<TRIPOS>ATOM
1	 CL1	10.602	2.480	-2.181	Cl	1	RES1	0.000	
2	  S1	4.352	-4.798	-12.258	S.O2	1	RES1	0.000	
3	  S2	10.600	-7.938	-8.805	S.3	1	RES1	0.000	
4	  S3	5.381	-8.122	-7.988	S.O2	1	RES1	0.000	
5	  N6	8.939	4.378	-7.968	N.3	1	RES1	0.000	
6	  O6	7.128	-3.596	-12.473	O.2	1	RES1	0.000	
7	  N7	8.060	2.027	-9.405	N.pl3	1	RES1	0.000	
8	  O7	2.997	-4.955	-11.741	O.2	1	RES1	0.000	
9	  N8	4.985	-3.362	-11.612	N.pl3	1	RES1	0.000	
10	  O8	4.575	-4.837	-13.688	O.2	1	RES1	0.000	
11	  N9	7.780	-9.019	-9.652	N.pl3	1	RES1	0.000	
12	  O9	10.201	-16.109	-8.821	O.3	1	RES1	0.000	
13	 N10	10.204	-13.353	-9.691	N.3	1	RES1	0.000	
14	 O10	6.571	-8.546	-7.302	O.2	1	RES1	0.000	
15	 O11	4.539	-7.098	-7.365	O.2	1	RES1	0.000	
16	 C24	6.206	9.633	-8.216	C.3	1	RES1	0.000	
17	 C25	6.516	8.358	-7.432	C.3	1	RES1	0.000	
18	 C26	5.289	7.419	-7.534	C.3	1	RES1	0.000	
19	 C27	6.770	8.747	-5.944	C.3	1	RES1	0.000	
20	 C28	7.191	7.536	-5.110	C.3	1	RES1	0.000	
21	 C29	8.156	6.602	-5.817	C.3	1	RES1	0.000	
22	 C30	8.775	5.640	-4.902	C.2	1	RES1	0.000	
23	 C31	7.962	4.633	-4.286	C.2	1	RES1	0.000	
24	 C32	8.505	3.676	-3.443	C.2	1	RES1	0.000	
25	 C33	9.886	3.687	-3.212	C.2	1	RES1	0.000	
26	 C34	10.696	4.640	-3.837	C.2	1	RES1	0.000	
27	 C35	10.133	5.603	-4.674	C.2	1	RES1	0.000	
28	 C36	8.470	6.692	-7.105	C.3	1	RES1	0.000	
29	 C37	9.432	5.771	-7.810	C.3	1	RES1	0.000	
30	 C38	9.912	3.518	-8.639	C.3	1	RES1	0.000	
31	 C39	9.377	2.064	-8.781	C.3	1	RES1	0.000	
32	 C40	7.593	0.796	-10.012	C.2	1	RES1	0.000	
33	 C41	8.496	-0.126	-10.559	C.2	1	RES1	0.000	
34	 C42	8.087	-1.327	-11.156	C.2	1	RES1	0.000	
35	 C43	6.719	-1.640	-11.180	C.2	1	RES1	0.000	
36	 C44	6.319	-2.948	-11.849	C.2	1	RES1	0.000	
37	 C45	5.360	-6.044	-11.485	C.2	1	RES1	0.000	
38	 C46	6.463	-6.607	-12.190	C.2	1	RES1	0.000	
39	 C47	7.242	-7.567	-11.566	C.2	1	RES1	0.000	
40	 C48	6.983	-8.036	-10.272	C.2	1	RES1	0.000	
41	 C49	8.952	-9.731	-10.299	C.3	1	RES1	0.000	
42	 C50	9.247	-11.023	-9.540	C.3	1	RES1	0.000	
43	 C51	9.631	-12.210	-10.446	C.3	1	RES1	0.000	
44	 C52	10.669	-14.432	-10.560	C.3	1	RES1	0.000	
45	 C53	11.196	-15.625	-9.726	C.3	1	RES1	0.000	
46	 C54	9.762	-15.051	-7.950	C.3	1	RES1	0.000	
47	 C55	9.206	-13.877	-8.733	C.3	1	RES1	0.000	
48	 C56	10.115	-8.728	-10.433	C.3	1	RES1	0.000	
49	 C57	9.525	-6.510	-8.710	C.2	1	RES1	0.000	
50	 C58	9.329	-5.573	-9.747	C.2	1	RES1	0.000	
51	 C59	8.466	-4.490	-9.583	C.2	1	RES1	0.000	
52	 C60	7.763	-4.328	-8.384	C.2	1	RES1	0.000	
53	 C61	7.931	-5.257	-7.354	C.2	1	RES1	0.000	
54	 C62	8.813	-6.339	-7.534	C.2	1	RES1	0.000	
55	 C63	5.858	-7.528	-9.639	C.2	1	RES1	0.000	
56	 C64	4.375	-9.551	-8.373	C.3	1	RES1	0.000	
57	 C65	5.053	-6.534	-10.206	C.2	1	RES1	0.000	
58	 C66	5.804	-0.745	-10.640	C.2	1	RES1	0.000	
59	 C67	6.226	0.455	-10.055	C.2	1	RES1	0.000	
60	 C68	7.044	2.964	-8.844	C.3	1	RES1	0.000	
61	 C69	7.649	4.364	-8.713	C.3	1	RES1	0.000	
62	 C70	7.776	7.720	-8.008	C.3	1	RES1	0.000	
63	  F1	3.838	-10.124	-7.249	 F	1	RES1	0.000	
64	  F2	5.057	-10.521	-9.055	 F	1	RES1	0.000	
65	  F3	3.295	-9.232	-9.197	 F	1	RES1	0.000	
@<TRIPOS>BOND
1 1 25 1
2 2 8 2
3 2 9 1
4 2 10 2
5 2 37 1
6 3 48 1
7 3 49 1
8 4 55 1
9 4 56 1
10 5 61 1
11 13 43 1
12 13 44 1
13 13 47 1
14 4 14 2
15 4 15 2
16 16 17 1
17 17 18 1
18 17 19 1
19 17 62 1
20 19 20 1
21 20 21 1
22 21 22 1
23 21 28 1
24 22 23 ar
25 22 27 ar
26 23 24 ar
27 24 25 ar
28 25 26 ar
29 26 27 ar
30 28 29 1
31 28 62 1
32 5 29 1
33 5 30 1
34 30 31 1
35 7 31 1
36 7 32 1
37 32 33 ar
38 32 59 ar
39 33 34 ar
40 34 35 ar
41 35 36 1
42 35 58 ar
43 6 36 2
44 9 36 1
45 37 38 ar
46 37 57 ar
47 38 39 ar
48 39 40 ar
49 11 40 1
50 40 55 ar
51 11 41 1
52 41 42 1
53 41 48 1
54 42 43 1
55 44 45 1
56 12 45 1
57 12 46 1
58 46 47 1
59 49 50 ar
60 49 54 ar
61 50 51 ar
62 51 52 ar
63 52 53 ar
64 53 54 ar
65 55 57 ar
66 58 59 ar
67 7 60 1
68 60 61 1
69 56 63 1
70 56 64 1
71 56 65 1
@<TRIPOS>SUBSTRUCTURE
1	RES1	1	GROUP	1 ****	RES
