# created with PyMOL 2.5.2
@<TRIPOS>MOLECULE
BCL2_4LVT_TargetProtein
65 71 1                 
SMALL
USER_CHARGES
@<TRIPOS>ATOM
1	 CL1	10.676	2.750	-1.829	Cl	1	RES1	0.000	
2	  S1	4.322	-4.716	-12.256	S.O2	1	RES1	0.000	
3	  S2	10.531	-8.359	-8.584	S.3	1	RES1	0.000	
4	  S3	5.083	-8.119	-7.982	S.O2	1	RES1	0.000	
5	  N6	8.845	4.729	-8.703	N.3	1	RES1	0.000	
6	  O6	7.208	-3.743	-12.512	O.2	1	RES1	0.000	
7	  N7	8.119	2.065	-9.686	N.pl3	1	RES1	0.000	
8	  O7	2.946	-4.774	-11.766	O.2	1	RES1	0.000	
9	  N8	5.079	-3.317	-11.655	N.pl3	1	RES1	0.000	
10	  O8	4.594	-4.765	-13.676	O.2	1	RES1	0.000	
11	  N9	7.545	-9.094	-9.632	N.pl3	1	RES1	0.000	
12	  O9	11.433	-15.566	-8.741	O.3	1	RES1	0.000	
13	 N10	9.619	-13.580	-9.715	N.3	1	RES1	0.000	
14	 O10	4.180	-7.099	-7.466	O.2	1	RES1	0.000	
15	 O11	6.246	-8.508	-7.207	O.2	1	RES1	0.000	
16	 C25	6.131	9.566	-8.157	C.3	1	RES1	0.000	
17	 C26	6.457	8.314	-7.325	C.3	1	RES1	0.000	
18	 C27	5.228	7.375	-7.370	C.3	1	RES1	0.000	
19	 C28	6.738	8.732	-5.863	C.3	1	RES1	0.000	
20	 C29	7.138	7.557	-4.982	C.3	1	RES1	0.000	
21	 C30	8.101	6.604	-5.677	C.3	1	RES1	0.000	
22	 C31	8.760	5.639	-4.707	C.2	1	RES1	0.000	
23	 C32	7.961	4.680	-4.108	C.2	1	RES1	0.000	
24	 C33	8.566	3.774	-3.212	C.2	1	RES1	0.000	
25	 C34	9.910	3.898	-2.945	C.2	1	RES1	0.000	
26	 C35	10.711	4.841	-3.558	C.2	1	RES1	0.000	
27	 C36	10.123	5.753	-4.461	C.2	1	RES1	0.000	
28	 C37	8.359	6.616	-6.989	C.3	1	RES1	0.000	
29	 C38	9.348	5.666	-7.677	C.3	1	RES1	0.000	
30	 C39	9.855	3.792	-9.230	C.3	1	RES1	0.000	
31	 C40	9.252	2.836	-10.270	C.3	1	RES1	0.000	
32	 C41	7.728	0.793	-10.265	C.2	1	RES1	0.000	
33	 C42	8.671	-0.085	-10.780	C.2	1	RES1	0.000	
34	 C43	8.320	-1.319	-11.314	C.2	1	RES1	0.000	
35	 C44	6.944	-1.704	-11.335	C.2	1	RES1	0.000	
36	 C45	6.457	-3.018	-11.895	C.2	1	RES1	0.000	
37	 C46	5.249	-6.022	-11.447	C.2	1	RES1	0.000	
38	 C47	6.333	-6.616	-12.142	C.2	1	RES1	0.000	
39	 C48	7.058	-7.606	-11.561	C.2	1	RES1	0.000	
40	 C49	6.777	-8.064	-10.237	C.2	1	RES1	0.000	
41	 C50	8.677	-9.839	-10.232	C.3	1	RES1	0.000	
42	 C51	8.813	-11.197	-9.500	C.3	1	RES1	0.000	
43	 C52	9.253	-12.307	-10.434	C.3	1	RES1	0.000	
44	 C53	10.417	-13.330	-8.514	C.3	1	RES1	0.000	
45	 C54	10.754	-14.700	-7.852	C.3	1	RES1	0.000	
46	 C55	10.633	-15.817	-9.904	C.3	1	RES1	0.000	
47	 C56	10.303	-14.509	-10.626	C.3	1	RES1	0.000	
48	 C57	9.985	-9.030	-10.217	C.3	1	RES1	0.000	
49	 C58	9.605	-6.824	-8.544	C.2	1	RES1	0.000	
50	 C59	9.587	-5.914	-9.630	C.2	1	RES1	0.000	
51	 C60	8.883	-4.730	-9.556	C.2	1	RES1	0.000	
52	 C61	8.150	-4.433	-8.401	C.2	1	RES1	0.000	
53	 C62	8.169	-5.294	-7.321	C.2	1	RES1	0.000	
54	 C63	8.901	-6.479	-7.372	C.2	1	RES1	0.000	
55	 C64	5.649	-7.509	-9.629	C.2	1	RES1	0.000	
56	 C65	4.135	-9.582	-8.425	C.3	1	RES1	0.000	
57	 C66	4.899	-6.469	-10.195	C.2	1	RES1	0.000	
58	 C67	5.998	-0.823	-10.799	C.2	1	RES1	0.000	
59	 C68	6.371	0.398	-10.270	C.2	1	RES1	0.000	
60	 C69	7.435	2.645	-8.510	C.3	1	RES1	0.000	
61	 C70	7.490	4.167	-8.514	C.3	1	RES1	0.000	
62	 C71	7.708	7.607	-7.893	C.3	1	RES1	0.000	
63	  F1	3.490	-10.095	-7.373	 F	1	RES1	0.000	
64	  F2	4.924	-10.560	-8.939	 F	1	RES1	0.000	
65	  F3	3.202	-9.321	-9.373	 F	1	RES1	0.000	
@<TRIPOS>BOND
1 1 25 1
2 2 8 2
3 2 9 1
4 2 10 2
5 2 37 1
6 3 48 1
7 3 49 1
8 4 55 1
9 4 56 1
10 5 61 1
11 13 43 1
12 13 44 1
13 13 47 1
14 4 14 2
15 4 15 2
16 16 17 1
17 17 18 1
18 17 19 1
19 17 62 1
20 19 20 1
21 20 21 1
22 21 22 1
23 21 28 1
24 22 23 ar
25 22 27 ar
26 23 24 ar
27 24 25 ar
28 25 26 ar
29 26 27 ar
30 28 29 1
31 28 62 1
32 5 29 1
33 5 30 1
34 30 31 1
35 7 31 1
36 7 32 1
37 32 33 ar
38 32 59 ar
39 33 34 ar
40 34 35 ar
41 35 36 1
42 35 58 ar
43 6 36 2
44 9 36 1
45 37 38 ar
46 37 57 ar
47 38 39 ar
48 39 40 ar
49 11 40 1
50 40 55 ar
51 11 41 1
52 41 42 1
53 41 48 1
54 42 43 1
55 44 45 1
56 12 45 1
57 12 46 1
58 46 47 1
59 49 50 ar
60 49 54 ar
61 50 51 ar
62 51 52 ar
63 52 53 ar
64 53 54 ar
65 55 57 ar
66 58 59 ar
67 7 60 1
68 60 61 1
69 56 63 1
70 56 64 1
71 56 65 1
@<TRIPOS>SUBSTRUCTURE
1	RES1	1	GROUP	1 ****	RES
