# created with PyMOL 2.5.2
@<TRIPOS>MOLECULE
BCL2_4LVT_TargetProtein
65 71 1                 
SMALL
USER_CHARGES
@<TRIPOS>ATOM
1	 CL1	10.902	2.902	-1.812	Cl	1	RES1	0.000	
2	  S1	4.295	-4.815	-12.449	S.O2	1	RES1	0.000	
3	  S2	10.354	-8.327	-8.593	S.3	1	RES1	0.000	
4	  S3	5.267	-7.966	-8.044	S.O2	1	RES1	0.000	
5	  N6	8.647	4.553	-8.611	N.3	1	RES1	0.000	
6	  O6	7.151	-3.793	-12.669	O.2	1	RES1	0.000	
7	  N7	7.953	1.913	-9.620	N.pl3	1	RES1	0.000	
8	  O7	4.623	-4.889	-13.849	O.2	1	RES1	0.000	
9	  N8	4.997	-3.410	-11.852	N.pl3	1	RES1	0.000	
10	  O8	2.907	-4.933	-11.999	O.2	1	RES1	0.000	
11	  N9	7.606	-9.069	-9.724	N.pl3	1	RES1	0.000	
12	  O9	11.493	-15.500	-8.682	O.3	1	RES1	0.000	
13	 N10	9.604	-13.560	-9.739	N.3	1	RES1	0.000	
14	 O10	6.525	-8.361	-7.384	O.2	1	RES1	0.000	
15	 O11	4.468	-6.909	-7.447	O.2	1	RES1	0.000	
16	 C26	5.753	9.137	-8.263	C.3	1	RES1	0.000	
17	 C27	6.732	8.558	-7.254	C.3	1	RES1	0.000	
18	 C28	7.776	9.634	-6.886	C.3	1	RES1	0.000	
19	 C29	6.022	8.024	-6.041	C.3	1	RES1	0.000	
20	 C30	6.942	7.341	-5.000	C.3	1	RES1	0.000	
21	 C31	7.984	6.463	-5.653	C.3	1	RES1	0.000	
22	 C32	8.678	5.589	-4.692	C.2	1	RES1	0.000	
23	 C33	8.013	4.546	-4.040	C.2	1	RES1	0.000	
24	 C34	8.696	3.731	-3.149	C.2	1	RES1	0.000	
25	 C35	10.065	3.938	-2.920	C.2	1	RES1	0.000	
26	 C36	10.739	4.955	-3.563	C.2	1	RES1	0.000	
27	 C37	10.041	5.781	-4.467	C.2	1	RES1	0.000	
28	 C38	8.223	6.444	-6.983	C.3	1	RES1	0.000	
29	 C39	9.244	5.537	-7.646	C.3	1	RES1	0.000	
30	 C40	9.689	3.636	-9.114	C.3	1	RES1	0.000	
31	 C41	9.136	2.630	-10.124	C.3	1	RES1	0.000	
32	 C42	7.587	0.667	-10.204	C.2	1	RES1	0.000	
33	 C43	6.224	0.276	-10.302	C.2	1	RES1	0.000	
34	 C44	5.852	-0.917	-10.901	C.2	1	RES1	0.000	
35	 C45	6.840	-1.796	-11.385	C.2	1	RES1	0.000	
36	 C46	6.377	-3.094	-12.014	C.2	1	RES1	0.000	
37	 C47	5.278	-6.092	-11.624	C.2	1	RES1	0.000	
38	 C48	6.342	-6.663	-12.291	C.2	1	RES1	0.000	
39	 C49	7.132	-7.611	-11.666	C.2	1	RES1	0.000	
40	 C50	6.806	-8.085	-10.383	C.2	1	RES1	0.000	
41	 C51	8.723	-9.804	-10.349	C.3	1	RES1	0.000	
42	 C52	8.925	-11.125	-9.595	C.3	1	RES1	0.000	
43	 C53	9.284	-12.333	-10.471	C.3	1	RES1	0.000	
44	 C54	10.458	-13.279	-8.573	C.3	1	RES1	0.000	
45	 C55	10.834	-14.584	-7.819	C.3	1	RES1	0.000	
46	 C56	10.645	-15.829	-9.820	C.3	1	RES1	0.000	
47	 C57	10.311	-14.574	-10.622	C.3	1	RES1	0.000	
48	 C58	10.010	-8.910	-10.286	C.3	1	RES1	0.000	
49	 C59	9.469	-6.739	-8.517	C.2	1	RES1	0.000	
50	 C60	9.506	-5.749	-9.511	C.2	1	RES1	0.000	
51	 C61	8.783	-4.566	-9.351	C.2	1	RES1	0.000	
52	 C62	8.016	-4.378	-8.201	C.2	1	RES1	0.000	
53	 C63	7.964	-5.356	-7.239	C.2	1	RES1	0.000	
54	 C64	8.673	-6.538	-7.385	C.2	1	RES1	0.000	
55	 C65	5.699	-7.498	-9.708	C.2	1	RES1	0.000	
56	 C66	4.260	-9.435	-8.253	C.3	1	RES1	0.000	
57	 C67	4.937	-6.519	-10.344	C.2	1	RES1	0.000	
58	 C68	8.167	-1.424	-11.296	C.2	1	RES1	0.000	
59	 C69	8.506	-0.206	-10.733	C.2	1	RES1	0.000	
60	 C70	6.938	2.762	-8.929	C.3	1	RES1	0.000	
61	 C71	7.597	3.757	-7.968	C.3	1	RES1	0.000	
62	 C72	7.488	7.371	-7.939	C.3	1	RES1	0.000	
63	  F1	4.943	-10.455	-8.807	 F	1	RES1	0.000	
64	  F2	3.737	-9.896	-7.088	 F	1	RES1	0.000	
65	  F3	3.196	-9.195	-9.098	 F	1	RES1	0.000	
@<TRIPOS>BOND
1 1 25 1
2 2 8 2
3 2 9 1
4 2 10 2
5 2 37 1
6 3 48 1
7 3 49 1
8 4 55 1
9 4 56 1
10 5 61 1
11 7 60 1
12 13 43 1
13 13 44 1
14 13 47 1
15 4 14 2
16 4 15 2
17 16 17 1
18 17 18 1
19 17 19 1
20 17 62 1
21 19 20 1
22 20 21 1
23 21 22 1
24 21 28 1
25 22 23 ar
26 22 27 ar
27 23 24 ar
28 24 25 ar
29 25 26 ar
30 26 27 ar
31 28 29 1
32 28 62 1
33 5 29 1
34 5 30 1
35 30 31 1
36 7 31 1
37 7 32 1
38 32 33 ar
39 32 59 ar
40 33 34 ar
41 34 35 ar
42 35 36 1
43 35 58 ar
44 6 36 2
45 9 36 1
46 37 38 ar
47 37 57 ar
48 38 39 ar
49 39 40 ar
50 11 40 1
51 40 55 ar
52 11 41 1
53 41 42 1
54 41 48 1
55 42 43 1
56 44 45 1
57 12 45 1
58 12 46 1
59 46 47 1
60 49 50 ar
61 49 54 ar
62 50 51 ar
63 51 52 ar
64 52 53 ar
65 53 54 ar
66 55 57 ar
67 58 59 ar
68 60 61 1
69 56 63 1
70 56 64 1
71 56 65 1
@<TRIPOS>SUBSTRUCTURE
1	RES1	1	GROUP	1 ****	RES
