# created with PyMOL 2.5.2
@<TRIPOS>MOLECULE
BCL2_4LVT_TargetProtein
65 71 1                 
SMALL
USER_CHARGES
@<TRIPOS>ATOM
1	 CL1	11.043	4.365	-1.160	Cl	1	RES1	0.000	
2	  S1	4.331	-4.466	-12.020	S.O2	1	RES1	0.000	
3	  S2	10.358	-8.399	-8.831	S.3	1	RES1	0.000	
4	  S3	5.168	-8.080	-7.905	S.O2	1	RES1	0.000	
5	  N6	9.646	4.415	-8.210	N.3	1	RES1	0.000	
6	  O6	7.140	-3.493	-12.598	O.2	1	RES1	0.000	
7	  N7	8.485	2.058	-9.443	N.pl3	1	RES1	0.000	
8	  O7	2.988	-4.450	-11.436	O.2	1	RES1	0.000	
9	  N8	5.168	-3.138	-11.461	N.pl3	1	RES1	0.000	
10	  O8	4.493	-4.551	-13.471	O.2	1	RES1	0.000	
11	  N9	7.439	-9.132	-9.702	N.pl3	1	RES1	0.000	
12	  O9	11.377	-15.748	-9.068	O.3	1	RES1	0.000	
13	 N10	9.573	-13.698	-9.903	N.3	1	RES1	0.000	
14	 O10	6.385	-8.584	-7.263	O.2	1	RES1	0.000	
15	 O11	4.360	-7.062	-7.268	O.2	1	RES1	0.000	
16	 C27	5.135	7.583	-9.002	C.3	1	RES1	0.000	
17	 C28	6.104	7.516	-7.834	C.3	1	RES1	0.000	
18	 C29	6.537	8.952	-7.487	C.3	1	RES1	0.000	
19	 C30	5.420	6.827	-6.637	C.3	1	RES1	0.000	
20	 C31	6.384	6.633	-5.465	C.3	1	RES1	0.000	
21	 C32	7.787	6.196	-5.843	C.3	1	RES1	0.000	
22	 C33	8.603	5.739	-4.697	C.2	1	RES1	0.000	
23	 C34	8.212	4.602	-3.979	C.2	1	RES1	0.000	
24	 C35	8.973	4.191	-2.896	C.2	1	RES1	0.000	
25	 C36	10.105	4.888	-2.528	C.2	1	RES1	0.000	
26	 C37	10.501	6.025	-3.251	C.2	1	RES1	0.000	
27	 C38	9.745	6.450	-4.321	C.2	1	RES1	0.000	
28	 C39	8.226	6.190	-7.113	C.3	1	RES1	0.000	
29	 C40	9.618	5.737	-7.524	C.3	1	RES1	0.000	
30	 C41	9.001	3.366	-7.391	C.3	1	RES1	0.000	
31	 C42	9.034	2.007	-8.077	C.3	1	RES1	0.000	
32	 C43	8.002	0.867	-10.071	C.2	1	RES1	0.000	
33	 C44	6.691	0.401	-9.882	C.2	1	RES1	0.000	
34	 C45	6.209	-0.771	-10.474	C.2	1	RES1	0.000	
35	 C46	7.070	-1.551	-11.254	C.2	1	RES1	0.000	
36	 C47	6.506	-2.815	-11.852	C.2	1	RES1	0.000	
37	 C48	5.240	-5.873	-11.328	C.2	1	RES1	0.000	
38	 C49	6.256	-6.457	-12.080	C.2	1	RES1	0.000	
39	 C50	6.993	-7.525	-11.543	C.2	1	RES1	0.000	
40	 C51	6.735	-8.030	-10.265	C.2	1	RES1	0.000	
41	 C52	8.513	-9.940	-10.280	C.3	1	RES1	0.000	
42	 C53	8.679	-11.331	-9.558	C.3	1	RES1	0.000	
43	 C54	9.140	-12.418	-10.517	C.3	1	RES1	0.000	
44	 C55	10.387	-13.556	-8.696	C.3	1	RES1	0.000	
45	 C56	10.719	-14.942	-8.116	C.3	1	RES1	0.000	
46	 C57	10.549	-15.946	-10.261	C.3	1	RES1	0.000	
47	 C58	10.253	-14.587	-10.909	C.3	1	RES1	0.000	
48	 C59	9.832	-9.123	-10.415	C.3	1	RES1	0.000	
49	 C60	9.463	-6.830	-8.773	C.2	1	RES1	0.000	
50	 C61	9.409	-5.887	-9.827	C.2	1	RES1	0.000	
51	 C62	8.698	-4.713	-9.668	C.2	1	RES1	0.000	
52	 C63	8.008	-4.449	-8.489	C.2	1	RES1	0.000	
53	 C64	8.051	-5.369	-7.442	C.2	1	RES1	0.000	
54	 C65	8.761	-6.548	-7.588	C.2	1	RES1	0.000	
55	 C66	5.657	-7.462	-9.557	C.2	1	RES1	0.000	
56	 C67	4.097	-9.487	-8.368	C.3	1	RES1	0.000	
57	 C68	4.919	-6.362	-10.056	C.2	1	RES1	0.000	
58	 C69	8.391	-1.123	-11.455	C.2	1	RES1	0.000	
59	 C70	8.823	0.055	-10.880	C.2	1	RES1	0.000	
60	 C71	8.956	3.182	-10.271	C.3	1	RES1	0.000	
61	 C72	8.945	4.513	-9.514	C.3	1	RES1	0.000	
62	 C73	7.354	6.674	-8.241	C.3	1	RES1	0.000	
63	  F1	4.769	-10.401	-9.111	 F	1	RES1	0.000	
64	  F2	3.580	-10.116	-7.287	 F	1	RES1	0.000	
65	  F3	3.035	-9.057	-9.119	 F	1	RES1	0.000	
@<TRIPOS>BOND
1 1 25 1
2 2 8 2
3 2 9 1
4 2 10 2
5 2 37 1
6 3 48 1
7 3 49 1
8 4 55 1
9 4 56 1
10 5 61 1
11 7 60 1
12 13 43 1
13 13 44 1
14 13 47 1
15 4 14 2
16 4 15 2
17 16 17 1
18 17 18 1
19 17 19 1
20 17 62 1
21 19 20 1
22 20 21 1
23 21 22 1
24 21 28 1
25 22 23 ar
26 22 27 ar
27 23 24 ar
28 24 25 ar
29 25 26 ar
30 26 27 ar
31 28 29 1
32 28 62 1
33 5 29 1
34 5 30 1
35 30 31 1
36 7 31 1
37 7 32 1
38 32 33 ar
39 32 59 ar
40 33 34 ar
41 34 35 ar
42 35 36 1
43 35 58 ar
44 6 36 2
45 9 36 1
46 37 38 ar
47 37 57 ar
48 38 39 ar
49 39 40 ar
50 11 40 1
51 40 55 ar
52 11 41 1
53 41 42 1
54 41 48 1
55 42 43 1
56 44 45 1
57 12 45 1
58 12 46 1
59 46 47 1
60 49 50 ar
61 49 54 ar
62 50 51 ar
63 51 52 ar
64 52 53 ar
65 53 54 ar
66 55 57 ar
67 58 59 ar
68 60 61 1
69 56 63 1
70 56 64 1
71 56 65 1
@<TRIPOS>SUBSTRUCTURE
1	RES1	1	GROUP	1 ****	RES
