# created with PyMOL 2.5.2
@<TRIPOS>MOLECULE
BCL2_4LVT_TargetProtein
65 71 1                 
SMALL
USER_CHARGES
@<TRIPOS>ATOM
1	 CL1	10.657	2.798	-1.779	Cl	1	RES1	0.000	
2	  S1	4.230	-4.717	-12.125	S.O2	1	RES1	0.000	
3	  S2	10.489	-8.368	-8.733	S.3	1	RES1	0.000	
4	  S3	5.402	-8.222	-8.076	S.O2	1	RES1	0.000	
5	  N6	8.870	4.694	-8.606	N.3	1	RES1	0.000	
6	  O6	7.000	-3.554	-12.708	O.2	1	RES1	0.000	
7	  N7	8.077	2.085	-9.601	N.pl3	1	RES1	0.000	
8	  O7	4.330	-4.734	-13.549	O.2	1	RES1	0.000	
9	  N8	4.975	-3.310	-11.572	N.pl3	1	RES1	0.000	
10	  O8	2.939	-4.828	-11.456	O.2	1	RES1	0.000	
11	  N9	7.748	-9.097	-9.886	N.pl3	1	RES1	0.000	
12	  O9	10.305	-15.484	-8.005	O.3	1	RES1	0.000	
13	 N10	10.081	-13.462	-10.045	N.3	1	RES1	0.000	
14	 O10	6.606	-8.736	-7.440	O.2	1	RES1	0.000	
15	 O11	4.625	-7.199	-7.408	O.2	1	RES1	0.000	
16	 C28	5.249	7.201	-7.501	C.3	1	RES1	0.000	
17	 C29	6.450	8.172	-7.400	C.3	1	RES1	0.000	
18	 C30	6.099	9.410	-8.281	C.3	1	RES1	0.000	
19	 C31	6.678	8.646	-5.951	C.3	1	RES1	0.000	
20	 C32	7.074	7.510	-5.059	C.3	1	RES1	0.000	
21	 C33	8.112	6.554	-5.673	C.3	1	RES1	0.000	
22	 C34	8.743	5.644	-4.709	C.2	1	RES1	0.000	
23	 C35	7.978	4.636	-4.100	C.2	1	RES1	0.000	
24	 C36	8.563	3.771	-3.184	C.2	1	RES1	0.000	
25	 C37	9.921	3.881	-2.892	C.2	1	RES1	0.000	
26	 C38	10.701	4.876	-3.496	C.2	1	RES1	0.000	
27	 C39	10.103	5.756	-4.418	C.2	1	RES1	0.000	
28	 C40	8.415	6.564	-7.001	C.3	1	RES1	0.000	
29	 C41	9.442	5.653	-7.633	C.3	1	RES1	0.000	
30	 C42	7.691	3.981	-8.047	C.3	1	RES1	0.000	
31	 C43	7.068	3.012	-9.047	C.3	1	RES1	0.000	
32	 C44	7.647	0.847	-10.182	C.2	1	RES1	0.000	
33	 C45	6.350	0.369	-10.022	C.2	1	RES1	0.000	
34	 C46	5.928	-0.826	-10.587	C.2	1	RES1	0.000	
35	 C47	6.784	-1.612	-11.352	C.2	1	RES1	0.000	
36	 C48	6.290	-2.883	-11.926	C.2	1	RES1	0.000	
37	 C49	5.303	-6.031	-11.478	C.2	1	RES1	0.000	
38	 C50	6.346	-6.536	-12.229	C.2	1	RES1	0.000	
39	 C51	7.180	-7.535	-11.704	C.2	1	RES1	0.000	
40	 C52	6.949	-8.071	-10.415	C.2	1	RES1	0.000	
41	 C53	8.916	-9.765	-10.539	C.3	1	RES1	0.000	
42	 C54	9.097	-11.111	-9.813	C.3	1	RES1	0.000	
43	 C55	9.642	-12.257	-10.749	C.3	1	RES1	0.000	
44	 C56	10.831	-13.216	-8.777	C.3	1	RES1	0.000	
45	 C57	11.376	-14.521	-8.218	C.3	1	RES1	0.000	
46	 C58	9.617	-15.775	-9.228	C.3	1	RES1	0.000	
47	 C59	9.031	-14.475	-9.832	C.3	1	RES1	0.000	
48	 C60	10.166	-8.935	-10.421	C.3	1	RES1	0.000	
49	 C61	9.582	-6.811	-8.576	C.2	1	RES1	0.000	
50	 C62	9.676	-5.750	-9.486	C.2	1	RES1	0.000	
51	 C63	8.953	-4.630	-9.324	C.2	1	RES1	0.000	
52	 C64	8.114	-4.475	-8.214	C.2	1	RES1	0.000	
53	 C65	8.003	-5.529	-7.271	C.2	1	RES1	0.000	
54	 C66	8.740	-6.699	-7.485	C.2	1	RES1	0.000	
55	 C67	5.845	-7.563	-9.713	C.2	1	RES1	0.000	
56	 C68	4.334	-9.634	-8.497	C.3	1	RES1	0.000	
57	 C69	5.031	-6.527	-10.219	C.2	1	RES1	0.000	
58	 C70	8.085	-1.148	-11.541	C.2	1	RES1	0.000	
59	 C71	8.529	0.040	-10.946	C.2	1	RES1	0.000	
60	 C72	9.346	2.705	-10.055	C.3	1	RES1	0.000	
61	 C73	9.865	3.702	-9.012	C.3	1	RES1	0.000	
62	 C74	7.726	7.539	-7.947	C.3	1	RES1	0.000	
63	  F1	5.017	-10.615	-9.141	 F	1	RES1	0.000	
64	  F2	3.812	-10.183	-7.371	 F	1	RES1	0.000	
65	  F3	3.300	-9.262	-9.286	 F	1	RES1	0.000	
@<TRIPOS>BOND
1 1 25 1
2 2 8 2
3 2 9 1
4 2 10 2
5 2 37 1
6 3 48 1
7 3 49 1
8 4 55 1
9 4 56 1
10 5 61 1
11 7 60 1
12 13 43 1
13 13 44 1
14 13 47 1
15 4 14 2
16 4 15 2
17 16 17 1
18 17 18 1
19 17 19 1
20 17 62 1
21 19 20 1
22 20 21 1
23 21 22 1
24 21 28 1
25 22 23 ar
26 22 27 ar
27 23 24 ar
28 24 25 ar
29 25 26 ar
30 26 27 ar
31 28 29 1
32 28 62 1
33 5 29 1
34 5 30 1
35 30 31 1
36 7 31 1
37 7 32 1
38 32 33 ar
39 32 59 ar
40 33 34 ar
41 34 35 ar
42 35 36 1
43 35 58 ar
44 6 36 2
45 9 36 1
46 37 38 ar
47 37 57 ar
48 38 39 ar
49 39 40 ar
50 11 40 1
51 40 55 ar
52 11 41 1
53 41 42 1
54 41 48 1
55 42 43 1
56 44 45 1
57 12 45 1
58 12 46 1
59 46 47 1
60 49 50 ar
61 49 54 ar
62 50 51 ar
63 51 52 ar
64 52 53 ar
65 53 54 ar
66 55 57 ar
67 58 59 ar
68 60 61 1
69 56 63 1
70 56 64 1
71 56 65 1
@<TRIPOS>SUBSTRUCTURE
1	RES1	1	GROUP	1 ****	RES
