# created with PyMOL 2.5.2
@<TRIPOS>MOLECULE
BCL2_4LVT_TargetProtein
65 71 1                 
SMALL
USER_CHARGES
@<TRIPOS>ATOM
1	 CL1	10.698	2.740	-1.827	Cl	1	RES1	0.000	
2	  S1	4.252	-4.803	-12.265	S.O2	1	RES1	0.000	
3	  S2	10.512	-8.323	-8.517	S.3	1	RES1	0.000	
4	  S3	5.362	-8.179	-8.050	S.O2	1	RES1	0.000	
5	  N6	8.832	4.613	-8.557	N.3	1	RES1	0.000	
6	  O6	7.045	-3.632	-12.538	O.2	1	RES1	0.000	
7	  N7	8.047	1.995	-9.576	N.pl3	1	RES1	0.000	
8	  O7	4.414	-4.841	-13.706	O.2	1	RES1	0.000	
9	  N8	4.907	-3.359	-11.665	N.pl3	1	RES1	0.000	
10	  O8	2.937	-4.974	-11.653	O.2	1	RES1	0.000	
11	  N9	7.774	-9.039	-9.809	N.pl3	1	RES1	0.000	
12	  O9	10.159	-15.253	-7.959	O.3	1	RES1	0.000	
13	 N10	10.191	-13.359	-10.149	N.3	1	RES1	0.000	
14	 O10	4.509	-7.133	-7.434	O.2	1	RES1	0.000	
15	 O11	6.589	-8.578	-7.355	O.2	1	RES1	0.000	
16	 C29	6.155	9.355	-8.324	C.3	1	RES1	0.000	
17	 C30	6.485	8.159	-7.436	C.3	1	RES1	0.000	
18	 C31	5.310	7.180	-7.470	C.3	1	RES1	0.000	
19	 C32	6.734	8.656	-5.994	C.3	1	RES1	0.000	
20	 C33	7.149	7.523	-5.066	C.3	1	RES1	0.000	
21	 C34	8.131	6.572	-5.672	C.3	1	RES1	0.000	
22	 C35	8.763	5.629	-4.703	C.2	1	RES1	0.000	
23	 C36	8.012	4.637	-4.093	C.2	1	RES1	0.000	
24	 C37	8.602	3.744	-3.177	C.2	1	RES1	0.000	
25	 C38	9.988	3.835	-2.935	C.2	1	RES1	0.000	
26	 C39	10.747	4.814	-3.545	C.2	1	RES1	0.000	
27	 C40	10.143	5.689	-4.477	C.2	1	RES1	0.000	
28	 C41	8.432	6.535	-6.973	C.3	1	RES1	0.000	
29	 C42	9.435	5.582	-7.601	C.3	1	RES1	0.000	
30	 C43	9.829	3.682	-9.107	C.3	1	RES1	0.000	
31	 C44	9.205	2.695	-10.121	C.3	1	RES1	0.000	
32	 C45	7.595	0.774	-10.158	C.2	1	RES1	0.000	
33	 C46	6.232	0.441	-10.187	C.2	1	RES1	0.000	
34	 C47	5.762	-0.749	-10.735	C.2	1	RES1	0.000	
35	 C48	6.691	-1.656	-11.310	C.2	1	RES1	0.000	
36	 C49	6.265	-2.956	-11.882	C.2	1	RES1	0.000	
37	 C50	5.316	-6.070	-11.513	C.2	1	RES1	0.000	
38	 C51	6.402	-6.508	-12.202	C.2	1	RES1	0.000	
39	 C52	7.232	-7.491	-11.648	C.2	1	RES1	0.000	
40	 C53	6.974	-8.022	-10.368	C.2	1	RES1	0.000	
41	 C54	8.962	-9.694	-10.446	C.3	1	RES1	0.000	
42	 C55	9.176	-11.087	-9.861	C.3	1	RES1	0.000	
43	 C56	9.736	-12.103	-10.818	C.3	1	RES1	0.000	
44	 C57	10.878	-13.106	-8.891	C.3	1	RES1	0.000	
45	 C58	11.289	-14.417	-8.205	C.3	1	RES1	0.000	
46	 C59	9.505	-15.555	-9.232	C.3	1	RES1	0.000	
47	 C60	9.046	-14.264	-9.927	C.3	1	RES1	0.000	
48	 C61	10.194	-8.800	-10.285	C.3	1	RES1	0.000	
49	 C62	9.536	-6.849	-8.488	C.2	1	RES1	0.000	
50	 C63	9.639	-5.928	-9.535	C.2	1	RES1	0.000	
51	 C64	8.884	-4.733	-9.515	C.2	1	RES1	0.000	
52	 C65	8.063	-4.473	-8.422	C.2	1	RES1	0.000	
53	 C66	7.969	-5.367	-7.377	C.2	1	RES1	0.000	
54	 C67	8.720	-6.551	-7.417	C.2	1	RES1	0.000	
55	 C68	5.830	-7.560	-9.687	C.2	1	RES1	0.000	
56	 C69	4.379	-9.611	-8.433	C.3	1	RES1	0.000	
57	 C70	5.013	-6.541	-10.243	C.2	1	RES1	0.000	
58	 C71	8.040	-1.341	-11.279	C.2	1	RES1	0.000	
59	 C72	8.482	-0.148	-10.708	C.2	1	RES1	0.000	
60	 C73	7.061	2.879	-8.887	C.3	1	RES1	0.000	
61	 C74	7.753	3.840	-7.896	C.3	1	RES1	0.000	
62	 C75	7.772	7.499	-7.955	C.3	1	RES1	0.000	
63	  F1	5.096	-10.570	-9.081	 F	1	RES1	0.000	
64	  F2	3.855	-10.180	-7.320	 F	1	RES1	0.000	
65	  F3	3.343	-9.299	-9.269	 F	1	RES1	0.000	
@<TRIPOS>BOND
1 1 25 1
2 2 8 2
3 2 9 1
4 2 10 2
5 2 37 1
6 3 48 1
7 3 49 1
8 4 55 1
9 4 56 1
10 5 61 1
11 7 60 1
12 13 43 1
13 13 44 1
14 13 47 1
15 4 14 2
16 4 15 2
17 16 17 1
18 17 18 1
19 17 19 1
20 17 62 1
21 19 20 1
22 20 21 1
23 21 22 1
24 21 28 1
25 22 23 ar
26 22 27 ar
27 23 24 ar
28 24 25 ar
29 25 26 ar
30 26 27 ar
31 28 29 1
32 28 62 1
33 5 29 1
34 5 30 1
35 30 31 1
36 7 31 1
37 7 32 1
38 32 33 ar
39 32 59 ar
40 33 34 ar
41 34 35 ar
42 35 36 1
43 35 58 ar
44 6 36 2
45 9 36 1
46 37 38 ar
47 37 57 ar
48 38 39 ar
49 39 40 ar
50 11 40 1
51 40 55 ar
52 11 41 1
53 41 42 1
54 41 48 1
55 42 43 1
56 44 45 1
57 12 45 1
58 12 46 1
59 46 47 1
60 49 50 ar
61 49 54 ar
62 50 51 ar
63 51 52 ar
64 52 53 ar
65 53 54 ar
66 55 57 ar
67 58 59 ar
68 60 61 1
69 56 63 1
70 56 64 1
71 56 65 1
@<TRIPOS>SUBSTRUCTURE
1	RES1	1	GROUP	1 ****	RES
