# created with PyMOL 2.5.2
@<TRIPOS>MOLECULE
BCL2_4LVT_TargetProtein
65 71 1                 
SMALL
USER_CHARGES
@<TRIPOS>ATOM
1	 CL1	10.903	2.871	-1.699	Cl	1	RES1	0.000	
2	  S1	4.185	-4.908	-12.488	S.O2	1	RES1	0.000	
3	  S2	10.563	-7.809	-8.721	S.3	1	RES1	0.000	
4	  S3	5.399	-7.933	-8.008	S.O2	1	RES1	0.000	
5	  N6	8.671	4.429	-8.575	N.3	1	RES1	0.000	
6	  O6	6.995	-3.870	-12.677	O.2	1	RES1	0.000	
7	  N7	7.909	1.793	-9.573	N.pl3	1	RES1	0.000	
8	  O7	4.497	-4.959	-13.920	O.2	1	RES1	0.000	
9	  N8	4.836	-3.480	-11.823	N.pl3	1	RES1	0.000	
10	  O8	2.857	-5.115	-11.958	O.2	1	RES1	0.000	
11	  N9	7.794	-8.860	-9.679	N.pl3	1	RES1	0.000	
12	  O9	10.411	-15.985	-8.774	O.3	1	RES1	0.000	
13	 N10	10.183	-13.247	-9.630	N.3	1	RES1	0.000	
14	 O10	4.531	-6.880	-7.511	O.2	1	RES1	0.000	
15	 O11	6.643	-8.223	-7.329	O.2	1	RES1	0.000	
16	 C30	5.855	9.036	-8.353	C.3	1	RES1	0.000	
17	 C31	6.849	8.443	-7.337	C.3	1	RES1	0.000	
18	 C32	7.879	9.535	-6.994	C.3	1	RES1	0.000	
19	 C33	6.074	7.981	-6.080	C.3	1	RES1	0.000	
20	 C34	6.988	7.311	-5.071	C.3	1	RES1	0.000	
21	 C35	8.009	6.385	-5.644	C.3	1	RES1	0.000	
22	 C36	8.693	5.512	-4.659	C.2	1	RES1	0.000	
23	 C37	8.023	4.516	-3.997	C.2	1	RES1	0.000	
24	 C38	8.694	3.688	-3.093	C.2	1	RES1	0.000	
25	 C39	10.049	3.885	-2.835	C.2	1	RES1	0.000	
26	 C40	10.761	4.910	-3.505	C.2	1	RES1	0.000	
27	 C41	10.080	5.724	-4.435	C.2	1	RES1	0.000	
28	 C42	8.287	6.310	-6.980	C.3	1	RES1	0.000	
29	 C43	9.274	5.377	-7.624	C.3	1	RES1	0.000	
30	 C44	9.700	3.451	-9.043	C.3	1	RES1	0.000	
31	 C45	9.139	2.462	-10.080	C.3	1	RES1	0.000	
32	 C46	7.487	0.578	-10.193	C.2	1	RES1	0.000	
33	 C47	8.441	-0.350	-10.677	C.2	1	RES1	0.000	
34	 C48	8.063	-1.542	-11.277	C.2	1	RES1	0.000	
35	 C49	6.699	-1.871	-11.387	C.2	1	RES1	0.000	
36	 C50	6.219	-3.160	-12.031	C.2	1	RES1	0.000	
37	 C51	5.242	-6.132	-11.677	C.2	1	RES1	0.000	
38	 C52	6.403	-6.610	-12.327	C.2	1	RES1	0.000	
39	 C53	7.226	-7.511	-11.662	C.2	1	RES1	0.000	
40	 C54	6.967	-7.976	-10.385	C.2	1	RES1	0.000	
41	 C55	8.975	-9.572	-10.255	C.3	1	RES1	0.000	
42	 C56	9.239	-10.877	-9.449	C.3	1	RES1	0.000	
43	 C57	9.649	-12.076	-10.338	C.3	1	RES1	0.000	
44	 C58	10.670	-14.336	-10.552	C.3	1	RES1	0.000	
45	 C59	11.319	-15.452	-9.738	C.3	1	RES1	0.000	
46	 C60	9.975	-14.967	-7.879	C.3	1	RES1	0.000	
47	 C61	9.272	-13.851	-8.612	C.3	1	RES1	0.000	
48	 C62	10.148	-8.592	-10.328	C.3	1	RES1	0.000	
49	 C63	9.494	-6.382	-8.625	C.2	1	RES1	0.000	
50	 C64	9.333	-5.450	-9.650	C.2	1	RES1	0.000	
51	 C65	8.465	-4.359	-9.496	C.2	1	RES1	0.000	
52	 C66	7.747	-4.201	-8.323	C.2	1	RES1	0.000	
53	 C67	7.893	-5.124	-7.302	C.2	1	RES1	0.000	
54	 C68	8.768	-6.205	-7.439	C.2	1	RES1	0.000	
55	 C69	5.817	-7.477	-9.728	C.2	1	RES1	0.000	
56	 C70	4.445	-9.453	-8.217	C.3	1	RES1	0.000	
57	 C71	4.949	-6.564	-10.382	C.2	1	RES1	0.000	
58	 C72	5.756	-0.993	-10.902	C.2	1	RES1	0.000	
59	 C73	6.135	0.193	-10.302	C.2	1	RES1	0.000	
60	 C74	6.898	2.693	-8.963	C.3	1	RES1	0.000	
61	 C75	7.531	3.651	-7.958	C.3	1	RES1	0.000	
62	 C76	7.539	7.215	-7.955	C.3	1	RES1	0.000	
63	  F1	4.013	-9.942	-7.038	 F	1	RES1	0.000	
64	  F2	5.177	-10.430	-8.801	 F	1	RES1	0.000	
65	  F3	3.346	-9.262	-8.994	 F	1	RES1	0.000	
@<TRIPOS>BOND
1 1 25 1
2 2 8 2
3 2 9 1
4 2 10 2
5 2 37 1
6 3 48 1
7 3 49 1
8 4 55 1
9 4 56 1
10 5 61 1
11 7 60 1
12 13 43 1
13 13 44 1
14 13 47 1
15 4 14 2
16 4 15 2
17 16 17 1
18 17 18 1
19 17 19 1
20 17 62 1
21 19 20 1
22 20 21 1
23 21 22 1
24 21 28 1
25 22 23 ar
26 22 27 ar
27 23 24 ar
28 24 25 ar
29 25 26 ar
30 26 27 ar
31 28 29 1
32 28 62 1
33 5 29 1
34 5 30 1
35 30 31 1
36 7 31 1
37 7 32 1
38 32 33 ar
39 32 59 ar
40 33 34 ar
41 34 35 ar
42 35 36 1
43 35 58 ar
44 6 36 2
45 9 36 1
46 37 38 ar
47 37 57 ar
48 38 39 ar
49 39 40 ar
50 11 40 1
51 40 55 ar
52 11 41 1
53 41 42 1
54 41 48 1
55 42 43 1
56 44 45 1
57 12 45 1
58 12 46 1
59 46 47 1
60 49 50 ar
61 49 54 ar
62 50 51 ar
63 51 52 ar
64 52 53 ar
65 53 54 ar
66 55 57 ar
67 58 59 ar
68 60 61 1
69 56 63 1
70 56 64 1
71 56 65 1
@<TRIPOS>SUBSTRUCTURE
1	RES1	1	GROUP	1 ****	RES
