# created with PyMOL 2.5.2
@<TRIPOS>MOLECULE
BCL2_4LVT_TargetProtein
65 71 1                 
SMALL
USER_CHARGES
@<TRIPOS>ATOM
1	 CL1	10.847	3.019	-1.685	Cl	1	RES1	0.000	
2	  S1	4.306	-4.914	-12.342	S.O2	1	RES1	0.000	
3	  S2	10.599	-7.993	-8.789	S.3	1	RES1	0.000	
4	  S3	5.396	-8.123	-7.984	S.O2	1	RES1	0.000	
5	  N6	8.757	4.618	-8.625	N.3	1	RES1	0.000	
6	  O6	7.077	-3.694	-12.549	O.2	1	RES1	0.000	
7	  N7	7.936	1.997	-9.599	N.pl3	1	RES1	0.000	
8	  O7	4.522	-4.962	-13.772	O.2	1	RES1	0.000	
9	  N8	4.939	-3.443	-11.738	N.pl3	1	RES1	0.000	
10	  O8	2.971	-5.060	-11.800	O.2	1	RES1	0.000	
11	  N9	7.798	-9.060	-9.673	N.pl3	1	RES1	0.000	
12	  O9	10.272	-16.120	-8.778	O.3	1	RES1	0.000	
13	 N10	10.204	-13.376	-9.631	N.3	1	RES1	0.000	
14	 O10	6.605	-8.544	-7.339	O.2	1	RES1	0.000	
15	 O11	4.574	-7.078	-7.401	O.2	1	RES1	0.000	
16	 C27	5.735	9.087	-8.286	C.3	1	RES1	0.000	
17	 C28	6.746	8.490	-7.305	C.3	1	RES1	0.000	
18	 C29	7.706	9.662	-6.884	C.3	1	RES1	0.000	
19	 C30	5.993	7.981	-6.061	C.3	1	RES1	0.000	
20	 C31	6.941	7.291	-5.062	C.3	1	RES1	0.000	
21	 C32	8.003	6.435	-5.704	C.3	1	RES1	0.000	
22	 C33	8.710	5.577	-4.732	C.2	1	RES1	0.000	
23	 C34	8.056	4.488	-4.148	C.2	1	RES1	0.000	
24	 C35	8.724	3.717	-3.187	C.2	1	RES1	0.000	
25	 C36	10.041	4.012	-2.851	C.2	1	RES1	0.000	
26	 C37	10.697	5.098	-3.404	C.2	1	RES1	0.000	
27	 C38	10.034	5.873	-4.362	C.2	1	RES1	0.000	
28	 C39	8.292	6.457	-7.025	C.3	1	RES1	0.000	
29	 C40	9.323	5.584	-7.712	C.3	1	RES1	0.000	
30	 C41	9.732	3.658	-9.182	C.3	1	RES1	0.000	
31	 C42	9.120	2.686	-10.173	C.3	1	RES1	0.000	
32	 C43	7.507	0.753	-10.173	C.2	1	RES1	0.000	
33	 C44	6.144	0.384	-10.229	C.2	1	RES1	0.000	
34	 C45	5.728	-0.812	-10.799	C.2	1	RES1	0.000	
35	 C46	6.658	-1.721	-11.338	C.2	1	RES1	0.000	
36	 C47	6.273	-3.041	-11.928	C.2	1	RES1	0.000	
37	 C48	5.359	-6.151	-11.551	C.2	1	RES1	0.000	
38	 C49	6.436	-6.686	-12.249	C.2	1	RES1	0.000	
39	 C50	7.250	-7.612	-11.599	C.2	1	RES1	0.000	
40	 C51	6.992	-8.071	-10.310	C.2	1	RES1	0.000	
41	 C52	8.943	-9.750	-10.291	C.3	1	RES1	0.000	
42	 C53	9.239	-11.030	-9.534	C.3	1	RES1	0.000	
43	 C54	9.630	-12.228	-10.387	C.3	1	RES1	0.000	
44	 C55	10.665	-14.456	-10.514	C.3	1	RES1	0.000	
45	 C56	11.234	-15.599	-9.702	C.3	1	RES1	0.000	
46	 C57	9.828	-15.112	-7.886	C.3	1	RES1	0.000	
47	 C58	9.233	-13.933	-8.637	C.3	1	RES1	0.000	
48	 C59	10.147	-8.740	-10.387	C.3	1	RES1	0.000	
49	 C60	9.530	-6.552	-8.686	C.2	1	RES1	0.000	
50	 C61	9.371	-5.624	-9.706	C.2	1	RES1	0.000	
51	 C62	8.501	-4.514	-9.548	C.2	1	RES1	0.000	
52	 C63	7.840	-4.343	-8.375	C.2	1	RES1	0.000	
53	 C64	7.976	-5.266	-7.331	C.2	1	RES1	0.000	
54	 C65	8.840	-6.343	-7.491	C.2	1	RES1	0.000	
55	 C66	5.865	-7.532	-9.663	C.2	1	RES1	0.000	
56	 C67	4.361	-9.548	-8.348	C.3	1	RES1	0.000	
57	 C68	5.038	-6.570	-10.250	C.2	1	RES1	0.000	
58	 C69	8.016	-1.372	-11.281	C.2	1	RES1	0.000	
59	 C70	8.429	-0.172	-10.698	C.2	1	RES1	0.000	
60	 C71	6.958	2.856	-8.896	C.3	1	RES1	0.000	
61	 C72	7.649	3.855	-7.962	C.3	1	RES1	0.000	
62	 C73	7.522	7.374	-7.980	C.3	1	RES1	0.000	
63	  F1	5.042	-10.528	-9.018	 F	1	RES1	0.000	
64	  F2	3.881	-10.116	-7.254	 F	1	RES1	0.000	
65	  F3	3.289	-9.203	-9.156	 F	1	RES1	0.000	
@<TRIPOS>BOND
1 1 25 1
2 2 8 2
3 2 9 1
4 2 10 2
5 2 37 1
6 3 48 1
7 3 49 1
8 4 55 1
9 4 56 1
10 5 61 1
11 7 60 1
12 13 43 1
13 13 44 1
14 13 47 1
15 4 14 2
16 4 15 2
17 16 17 1
18 17 18 1
19 17 19 1
20 17 62 1
21 19 20 1
22 20 21 1
23 21 22 1
24 21 28 1
25 22 23 ar
26 22 27 ar
27 23 24 ar
28 24 25 ar
29 25 26 ar
30 26 27 ar
31 28 29 1
32 28 62 1
33 5 29 1
34 5 30 1
35 30 31 1
36 7 31 1
37 7 32 1
38 32 33 ar
39 32 59 ar
40 33 34 ar
41 34 35 ar
42 35 36 1
43 35 58 ar
44 6 36 2
45 9 36 1
46 37 38 ar
47 37 57 ar
48 38 39 ar
49 39 40 ar
50 11 40 1
51 40 55 ar
52 11 41 1
53 41 42 1
54 41 48 1
55 42 43 1
56 44 45 1
57 12 45 1
58 12 46 1
59 46 47 1
60 49 50 ar
61 49 54 ar
62 50 51 ar
63 51 52 ar
64 52 53 ar
65 53 54 ar
66 55 57 ar
67 58 59 ar
68 60 61 1
69 56 63 1
70 56 64 1
71 56 65 1
@<TRIPOS>SUBSTRUCTURE
1	RES1	1	GROUP	1 ****	RES
