# created with PyMOL 2.5.2
@<TRIPOS>MOLECULE
BCL2_4LVT_TargetProtein
65 71 1                 
SMALL
USER_CHARGES
@<TRIPOS>ATOM
1	 CL1	10.611	2.853	-1.616	Cl	1	RES1	0.000	
2	  S1	4.240	-4.689	-12.294	S.O2	1	RES1	0.000	
3	  S2	10.403	-8.236	-8.524	S.3	1	RES1	0.000	
4	  S3	5.251	-7.927	-7.923	S.O2	1	RES1	0.000	
5	  N6	8.930	4.538	-8.529	N.3	1	RES1	0.000	
6	  O6	7.057	-3.645	-12.852	O.2	1	RES1	0.000	
7	  N7	8.105	1.937	-9.581	N.pl3	1	RES1	0.000	
8	  O7	4.500	-4.794	-13.738	O.2	1	RES1	0.000	
9	  N8	5.003	-3.280	-11.753	N.pl3	1	RES1	0.000	
10	  O8	2.899	-4.771	-11.776	O.2	1	RES1	0.000	
11	  N9	7.584	-8.986	-9.651	N.pl3	1	RES1	0.000	
12	  O9	11.417	-15.601	-8.878	O.3	1	RES1	0.000	
13	 N10	9.696	-13.479	-9.805	N.3	1	RES1	0.000	
14	 O10	6.500	-8.313	-7.240	O.2	1	RES1	0.000	
15	 O11	4.431	-6.893	-7.361	O.2	1	RES1	0.000	
16	 C27	6.122	9.201	-8.429	C.3	1	RES1	0.000	
17	 C28	6.487	8.016	-7.524	C.3	1	RES1	0.000	
18	 C29	5.373	6.964	-7.624	C.3	1	RES1	0.000	
19	 C30	6.659	8.530	-6.070	C.3	1	RES1	0.000	
20	 C31	7.101	7.427	-5.105	C.3	1	RES1	0.000	
21	 C32	8.123	6.467	-5.701	C.3	1	RES1	0.000	
22	 C33	8.739	5.605	-4.676	C.2	1	RES1	0.000	
23	 C34	7.964	4.653	-4.024	C.2	1	RES1	0.000	
24	 C35	8.539	3.782	-3.065	C.2	1	RES1	0.000	
25	 C36	9.906	3.908	-2.805	C.2	1	RES1	0.000	
26	 C37	10.702	4.839	-3.457	C.2	1	RES1	0.000	
27	 C38	10.129	5.661	-4.394	C.2	1	RES1	0.000	
28	 C39	8.484	6.481	-7.021	C.3	1	RES1	0.000	
29	 C40	9.495	5.494	-7.581	C.3	1	RES1	0.000	
30	 C41	7.732	3.832	-8.014	C.3	1	RES1	0.000	
31	 C42	7.111	2.879	-9.048	C.3	1	RES1	0.000	
32	 C43	7.662	0.714	-10.212	C.2	1	RES1	0.000	
33	 C44	8.563	-0.085	-10.920	C.2	1	RES1	0.000	
34	 C45	8.163	-1.270	-11.554	C.2	1	RES1	0.000	
35	 C46	6.866	-1.691	-11.488	C.2	1	RES1	0.000	
36	 C47	6.350	-2.945	-12.102	C.2	1	RES1	0.000	
37	 C48	5.259	-5.982	-11.500	C.2	1	RES1	0.000	
38	 C49	6.326	-6.551	-12.172	C.2	1	RES1	0.000	
39	 C50	7.093	-7.530	-11.559	C.2	1	RES1	0.000	
40	 C51	6.792	-8.021	-10.277	C.2	1	RES1	0.000	
41	 C52	8.690	-9.726	-10.240	C.3	1	RES1	0.000	
42	 C53	8.889	-11.070	-9.477	C.3	1	RES1	0.000	
43	 C54	9.327	-12.190	-10.429	C.3	1	RES1	0.000	
44	 C55	10.523	-13.332	-8.576	C.3	1	RES1	0.000	
45	 C56	10.756	-14.704	-7.946	C.3	1	RES1	0.000	
46	 C57	10.601	-15.777	-10.056	C.3	1	RES1	0.000	
47	 C58	10.372	-14.436	-10.754	C.3	1	RES1	0.000	
48	 C59	9.975	-8.850	-10.188	C.3	1	RES1	0.000	
49	 C60	9.473	-6.706	-8.506	C.2	1	RES1	0.000	
50	 C61	9.576	-5.798	-9.546	C.2	1	RES1	0.000	
51	 C62	8.865	-4.585	-9.511	C.2	1	RES1	0.000	
52	 C63	8.017	-4.352	-8.430	C.2	1	RES1	0.000	
53	 C64	7.852	-5.273	-7.401	C.2	1	RES1	0.000	
54	 C65	8.585	-6.452	-7.441	C.2	1	RES1	0.000	
55	 C66	5.707	-7.426	-9.623	C.2	1	RES1	0.000	
56	 C67	4.247	-9.396	-8.190	C.3	1	RES1	0.000	
57	 C68	4.902	-6.445	-10.221	C.2	1	RES1	0.000	
58	 C69	5.926	-0.893	-10.781	C.2	1	RES1	0.000	
59	 C70	6.356	0.287	-10.154	C.2	1	RES1	0.000	
60	 C71	9.395	2.546	-9.975	C.3	1	RES1	0.000	
61	 C72	9.920	3.486	-8.921	C.3	1	RES1	0.000	
62	 C73	7.807	7.395	-7.990	C.3	1	RES1	0.000	
63	  F1	4.967	-10.405	-8.707	 F	1	RES1	0.000	
64	  F2	3.722	-9.859	-7.008	 F	1	RES1	0.000	
65	  F3	3.206	-9.175	-9.022	 F	1	RES1	0.000	
@<TRIPOS>BOND
1 1 25 1
2 2 8 2
3 2 9 1
4 2 10 2
5 2 37 1
6 3 48 1
7 3 49 1
8 4 55 1
9 4 56 1
10 5 61 1
11 7 60 1
12 13 43 1
13 13 44 1
14 13 47 1
15 4 14 2
16 4 15 2
17 16 17 1
18 17 18 1
19 17 19 1
20 17 62 1
21 19 20 1
22 20 21 1
23 21 22 1
24 21 28 1
25 22 23 ar
26 22 27 ar
27 23 24 ar
28 24 25 ar
29 25 26 ar
30 26 27 ar
31 28 29 1
32 28 62 1
33 5 29 1
34 5 30 1
35 30 31 1
36 7 31 1
37 7 32 1
38 32 33 ar
39 32 59 ar
40 33 34 ar
41 34 35 ar
42 35 36 1
43 35 58 ar
44 6 36 2
45 9 36 1
46 37 38 ar
47 37 57 ar
48 38 39 ar
49 39 40 ar
50 11 40 1
51 40 55 ar
52 11 41 1
53 41 42 1
54 41 48 1
55 42 43 1
56 44 45 1
57 12 45 1
58 12 46 1
59 46 47 1
60 49 50 ar
61 49 54 ar
62 50 51 ar
63 51 52 ar
64 52 53 ar
65 53 54 ar
66 55 57 ar
67 58 59 ar
68 60 61 1
69 56 63 1
70 56 64 1
71 56 65 1
@<TRIPOS>SUBSTRUCTURE
1	RES1	1	GROUP	1 ****	RES
