# created with PyMOL 2.5.2
@<TRIPOS>MOLECULE
WDR5_4QL1_TargetProtein
33 36 1                 
SMALL
USER_CHARGES
@<TRIPOS>ATOM
1	  N7	-12.389	-25.482	3.640	N.pl3	1	RES1	0.000	
2	  N8	-11.567	-24.678	6.289	N.3	1	RES1	0.000	
3	  O8	-9.147	-26.343	0.684	O.2	1	RES1	0.000	
4	  N9	-10.937	-27.157	1.944	N.pl3	1	RES1	0.000	
5	  O9	-6.502	-30.593	4.493	O.2	1	RES1	0.000	
6	 N10	-8.353	-30.105	3.221	N.2	1	RES1	0.000	
7	 C29	-13.522	-26.477	-4.188	C.2	1	RES1	0.000	
8	 C30	-14.870	-26.446	-4.509	C.2	1	RES1	0.000	
9	 C31	-15.817	-26.250	-3.508	C.2	1	RES1	0.000	
10	 C32	-15.420	-26.093	-2.177	C.2	1	RES1	0.000	
11	 C33	-14.032	-26.148	-1.823	C.2	1	RES1	0.000	
12	 C34	-13.621	-25.985	-0.420	C.2	1	RES1	0.000	
13	 C35	-14.345	-25.187	0.486	C.2	1	RES1	0.000	
14	 C36	-13.937	-25.019	1.825	C.2	1	RES1	0.000	
15	 C37	-12.814	-25.665	2.287	C.2	1	RES1	0.000	
16	 C38	-13.412	-25.198	4.685	C.3	1	RES1	0.000	
17	 C39	-12.827	-25.413	6.055	C.3	1	RES1	0.000	
18	 C40	-11.048	-24.923	7.631	C.3	1	RES1	0.000	
19	 C41	-10.581	-25.039	5.283	C.3	1	RES1	0.000	
20	 C42	-11.098	-24.800	3.839	C.3	1	RES1	0.000	
21	 C43	-12.061	-26.481	1.418	C.2	1	RES1	0.000	
22	 C44	-9.607	-27.059	1.536	C.2	1	RES1	0.000	
23	 C45	-8.701	-27.930	2.357	C.2	1	RES1	0.000	
24	 C46	-9.080	-29.194	2.485	C.2	1	RES1	0.000	
25	 C47	-7.172	-29.796	3.862	C.2	1	RES1	0.000	
26	 C48	-6.726	-28.382	3.749	C.2	1	RES1	0.000	
27	 C49	-7.456	-27.457	3.021	C.2	1	RES1	0.000	
28	 C50	-7.033	-26.026	2.938	C.3	1	RES1	0.000	
29	 C51	-12.473	-26.622	0.079	C.2	1	RES1	0.000	
30	 C52	-13.122	-26.357	-2.857	C.2	1	RES1	0.000	
31	  F1	-8.011	-25.179	3.287	 F	1	RES1	0.000	
32	  F2	-6.674	-25.687	1.667	 F	1	RES1	0.000	
33	  F3	-5.975	-25.733	3.736	 F	1	RES1	0.000	
@<TRIPOS>BOND
1 6 24 ar
2 6 25 ar
3 7 8 ar
4 7 30 ar
5 8 9 ar
6 9 10 ar
7 10 11 ar
8 11 12 1
9 11 30 ar
10 12 13 ar
11 12 29 ar
12 13 14 ar
13 14 15 ar
14 1 15 1
15 15 21 ar
16 1 16 1
17 16 17 1
18 2 17 1
19 2 18 1
20 2 19 1
21 19 20 1
22 1 20 1
23 4 21 1
24 21 29 ar
25 3 22 2
26 4 22 1
27 22 23 1
28 23 24 ar
29 23 27 ar
30 5 25 2
31 25 26 ar
32 26 27 ar
33 27 28 1
34 28 31 1
35 28 32 1
36 28 33 1
@<TRIPOS>SUBSTRUCTURE
1	RES1	1	GROUP	1 ****	RES
