# created with PyMOL 2.5.2
@<TRIPOS>MOLECULE
BRD4_4F3I_TargetProtein
29 32 1                 
SMALL
USER_CHARGES
@<TRIPOS>ATOM
1	 CL1	30.161	48.892	-7.035	Cl	1	RES1	0.000	
2	  C1	22.213	54.515	-5.112	C.3	1	RES1	0.000	
3	  N1	25.345	51.085	-2.919	N.2	1	RES1	0.000	
4	  O1	22.174	53.348	-4.292	O.3	1	RES1	0.000	
5	  S1	27.416	50.571	1.314	S.2	1	RES1	0.000	
6	  C2	23.278	53.181	-3.507	C.2	1	RES1	0.000	
7	  O2	24.266	53.869	-3.472	O.co2	1	RES1	0.000	
8	  C3	23.091	51.917	-2.641	C.3	1	RES1	0.000	
9	  O3	30.069	51.579	2.421	O.2	1	RES1	0.000	
10	  C4	24.391	51.554	-1.920	C.3	1	RES1	0.000	
11	  C5	26.602	50.833	-2.603	C.2	1	RES1	0.000	
12	  C6	27.507	50.354	-3.690	C.2	1	RES1	0.000	
13	  N6	25.131	50.090	-0.016	N.2	1	RES1	0.000	
14	  C7	27.346	50.865	-4.975	C.2	1	RES1	0.000	
15	  N7	23.218	49.130	0.519	N.2	1	RES1	0.000	
16	  C8	28.173	50.432	-6.005	C.2	1	RES1	0.000	
17	  N8	23.010	49.943	-0.558	N.2	1	RES1	0.000	
18	  C9	29.141	49.464	-5.756	C.2	1	RES1	0.000	
19	 C10	29.290	48.941	-4.466	C.2	1	RES1	0.000	
20	 C11	28.454	49.401	-3.439	C.2	1	RES1	0.000	
21	 C12	27.132	50.964	-1.226	C.2	1	RES1	0.000	
22	 C13	26.459	50.515	-0.091	C.2	1	RES1	0.000	
23	 C14	28.709	51.358	0.495	C.2	1	RES1	0.000	
24	 C15	29.892	51.756	1.229	C.2	1	RES1	0.000	
25	 C33	28.384	51.590	-0.860	C.2	1	RES1	0.000	
26	 C34	29.305	52.304	-1.809	C.3	1	RES1	0.000	
27	 C35	24.479	49.190	0.850	C.2	1	RES1	0.000	
28	 C36	25.097	48.398	1.923	C.3	1	RES1	0.000	
29	 C37	24.150	50.513	-0.869	C.2	1	RES1	0.000	
@<TRIPOS>BOND
1 1 18 1
2 2 4 1
3 3 10 1
4 3 11 2
5 4 6 1
6 5 22 ar
7 5 23 ar
8 6 8 1
9 6 7 2
10 8 10 1
11 11 12 1
12 12 14 ar
13 14 16 ar
14 15 17 ar
15 16 18 ar
16 18 19 ar
17 19 20 ar
18 12 20 ar
19 11 21 1
20 21 22 ar
21 21 25 ar
22 13 22 1
23 23 24 1
24 23 25 ar
25 9 24 2
26 25 26 1
27 13 27 ar
28 15 27 ar
29 27 28 1
30 10 29 1
31 13 29 ar
32 17 29 ar
@<TRIPOS>SUBSTRUCTURE
1	RES1	1	GROUP	1 ****	RES
