# created with PyMOL 2.5.2
@<TRIPOS>MOLECULE
WDR5_4QL1_TargetProtein
33 36 1                 
SMALL
USER_CHARGES
@<TRIPOS>ATOM
1	  N7	-12.397	-25.437	3.683	N.pl3	1	RES1	0.000	
2	  N8	-11.709	-24.728	6.394	N.3	1	RES1	0.000	
3	  N9	-10.920	-27.137	2.000	N.pl3	1	RES1	0.000	
4	  O9	-9.198	-26.398	0.596	O.2	1	RES1	0.000	
5	 N10	-8.313	-30.111	3.174	N.2	1	RES1	0.000	
6	 O10	-6.506	-30.549	4.486	O.2	1	RES1	0.000	
7	 C31	-13.481	-26.598	-4.117	C.2	1	RES1	0.000	
8	 C32	-14.821	-26.492	-4.474	C.2	1	RES1	0.000	
9	 C33	-15.759	-26.221	-3.486	C.2	1	RES1	0.000	
10	 C34	-15.359	-26.035	-2.166	C.2	1	RES1	0.000	
11	 C35	-14.020	-26.139	-1.788	C.2	1	RES1	0.000	
12	 C36	-13.587	-25.966	-0.384	C.2	1	RES1	0.000	
13	 C37	-14.273	-25.098	0.475	C.2	1	RES1	0.000	
14	 C38	-13.880	-24.915	1.801	C.2	1	RES1	0.000	
15	 C39	-12.784	-25.596	2.318	C.2	1	RES1	0.000	
16	 C40	-11.068	-24.898	3.985	C.3	1	RES1	0.000	
17	 C41	-10.662	-25.185	5.455	C.3	1	RES1	0.000	
18	 C42	-11.307	-24.988	7.774	C.3	1	RES1	0.000	
19	 C43	-13.027	-25.344	6.077	C.3	1	RES1	0.000	
20	 C44	-13.472	-25.064	4.626	C.3	1	RES1	0.000	
21	 C45	-12.080	-26.500	1.475	C.2	1	RES1	0.000	
22	 C46	-9.623	-27.071	1.548	C.2	1	RES1	0.000	
23	 C47	-8.693	-27.900	2.351	C.2	1	RES1	0.000	
24	 C48	-9.076	-29.196	2.455	C.2	1	RES1	0.000	
25	 C49	-7.154	-29.753	3.825	C.2	1	RES1	0.000	
26	 C50	-6.719	-28.344	3.672	C.2	1	RES1	0.000	
27	 C51	-7.446	-27.472	2.971	C.2	1	RES1	0.000	
28	 C52	-6.948	-26.051	2.797	C.3	1	RES1	0.000	
29	 C53	-12.495	-26.656	0.141	C.2	1	RES1	0.000	
30	 C54	-13.092	-26.435	-2.801	C.2	1	RES1	0.000	
31	  F1	-7.893	-25.121	3.254	 F	1	RES1	0.000	
32	  F2	-6.751	-25.740	1.465	 F	1	RES1	0.000	
33	  F3	-5.824	-25.771	3.432	 F	1	RES1	0.000	
@<TRIPOS>BOND
1 5 24 ar
2 5 25 ar
3 6 25 2
4 7 8 ar
5 7 30 ar
6 8 9 ar
7 9 10 ar
8 10 11 ar
9 11 12 1
10 11 30 ar
11 12 13 ar
12 12 29 ar
13 13 14 ar
14 14 15 ar
15 1 15 1
16 15 21 ar
17 1 16 1
18 16 17 1
19 2 17 1
20 2 18 1
21 2 19 1
22 19 20 1
23 1 20 1
24 3 21 1
25 21 29 ar
26 3 22 1
27 4 22 2
28 22 23 1
29 23 24 ar
30 23 27 ar
31 25 26 ar
32 26 27 ar
33 27 28 1
34 28 31 1
35 28 32 1
36 28 33 1
@<TRIPOS>SUBSTRUCTURE
1	RES1	1	GROUP	1 ****	RES
