# created with PyMOL 2.5.2
@<TRIPOS>MOLECULE
WDR5_4QL1_TargetProtein
33 36 1                 
SMALL
USER_CHARGES
@<TRIPOS>ATOM
1	  N7	-12.378	-25.515	3.639	N.pl3	1	RES1	0.000	
2	  N8	-11.515	-24.688	6.289	N.3	1	RES1	0.000	
3	  N9	-10.940	-27.164	1.925	N.pl3	1	RES1	0.000	
4	 N10	-8.362	-30.101	3.256	N.2	1	RES1	0.000	
5	 O10	-9.141	-26.371	0.680	O.2	1	RES1	0.000	
6	 O11	-6.485	-30.551	4.520	O.2	1	RES1	0.000	
7	 C33	-13.530	-26.481	-4.182	C.2	1	RES1	0.000	
8	 C34	-14.881	-26.431	-4.519	C.2	1	RES1	0.000	
9	 C35	-15.834	-26.236	-3.515	C.2	1	RES1	0.000	
10	 C36	-15.395	-26.084	-2.179	C.2	1	RES1	0.000	
11	 C37	-14.065	-26.134	-1.832	C.2	1	RES1	0.000	
12	 C38	-13.621	-25.983	-0.427	C.2	1	RES1	0.000	
13	 C39	-14.356	-25.180	0.481	C.2	1	RES1	0.000	
14	 C40	-13.960	-25.039	1.804	C.2	1	RES1	0.000	
15	 C41	-12.808	-25.674	2.270	C.2	1	RES1	0.000	
16	 C42	-11.048	-24.891	3.830	C.3	1	RES1	0.000	
17	 C43	-10.539	-25.139	5.250	C.3	1	RES1	0.000	
18	 C44	-11.009	-24.956	7.643	C.3	1	RES1	0.000	
19	 C45	-12.825	-25.406	6.055	C.3	1	RES1	0.000	
20	 C46	-13.364	-25.140	4.650	C.3	1	RES1	0.000	
21	 C47	-12.064	-26.453	1.380	C.2	1	RES1	0.000	
22	 C48	-9.625	-27.073	1.557	C.2	1	RES1	0.000	
23	 C49	-8.712	-27.933	2.390	C.2	1	RES1	0.000	
24	 C50	-9.100	-29.195	2.529	C.2	1	RES1	0.000	
25	 C51	-7.158	-29.767	3.903	C.2	1	RES1	0.000	
26	 C52	-6.740	-28.360	3.762	C.2	1	RES1	0.000	
27	 C53	-7.467	-27.465	3.033	C.2	1	RES1	0.000	
28	 C54	-7.068	-26.001	2.950	C.3	1	RES1	0.000	
29	 C55	-12.486	-26.605	0.071	C.2	1	RES1	0.000	
30	 C56	-13.116	-26.346	-2.872	C.2	1	RES1	0.000	
31	  F1	-8.085	-25.158	3.218	 F	1	RES1	0.000	
32	  F2	-6.638	-25.698	1.679	 F	1	RES1	0.000	
33	  F3	-6.022	-25.691	3.779	 F	1	RES1	0.000	
@<TRIPOS>BOND
1 4 24 ar
2 4 25 ar
3 5 22 2
4 6 25 2
5 7 8 ar
6 7 30 ar
7 8 9 ar
8 9 10 ar
9 10 11 ar
10 11 12 1
11 11 30 ar
12 12 13 ar
13 12 29 ar
14 13 14 ar
15 14 15 ar
16 1 15 1
17 15 21 ar
18 1 16 1
19 16 17 1
20 2 17 1
21 2 18 1
22 2 19 1
23 19 20 1
24 1 20 1
25 3 21 1
26 21 29 ar
27 3 22 1
28 22 23 1
29 23 24 ar
30 23 27 ar
31 25 26 ar
32 26 27 ar
33 27 28 1
34 28 31 1
35 28 32 1
36 28 33 1
@<TRIPOS>SUBSTRUCTURE
1	RES1	1	GROUP	1 ****	RES
