# created with PyMOL 2.5.2
@<TRIPOS>MOLECULE
WDR5_4QL1_TargetProtein
33 36 1                 
SMALL
USER_CHARGES
@<TRIPOS>ATOM
1	  N7	-12.381	-25.487	3.655	N.pl3	1	RES1	0.000	
2	  N8	-11.591	-24.636	6.284	N.3	1	RES1	0.000	
3	  N9	-10.903	-27.129	1.919	N.pl3	1	RES1	0.000	
4	 N10	-8.361	-30.098	3.157	N.2	1	RES1	0.000	
5	 O11	-9.111	-26.253	0.717	O.2	1	RES1	0.000	
6	 O12	-6.553	-30.635	4.461	O.2	1	RES1	0.000	
7	 C35	-13.540	-26.508	-4.169	C.2	1	RES1	0.000	
8	 C36	-14.894	-26.468	-4.510	C.2	1	RES1	0.000	
9	 C37	-15.826	-26.252	-3.502	C.2	1	RES1	0.000	
10	 C38	-15.438	-26.119	-2.197	C.2	1	RES1	0.000	
11	 C39	-14.075	-26.157	-1.816	C.2	1	RES1	0.000	
12	 C40	-13.632	-25.999	-0.407	C.2	1	RES1	0.000	
13	 C41	-14.360	-25.216	0.483	C.2	1	RES1	0.000	
14	 C42	-13.945	-25.063	1.791	C.2	1	RES1	0.000	
15	 C43	-12.792	-25.682	2.294	C.2	1	RES1	0.000	
16	 C44	-13.418	-25.231	4.660	C.3	1	RES1	0.000	
17	 C45	-12.806	-25.441	6.066	C.3	1	RES1	0.000	
18	 C46	-11.049	-24.882	7.633	C.3	1	RES1	0.000	
19	 C47	-10.583	-25.012	5.262	C.3	1	RES1	0.000	
20	 C48	-11.104	-24.786	3.819	C.3	1	RES1	0.000	
21	 C49	-12.046	-26.456	1.387	C.2	1	RES1	0.000	
22	 C50	-9.560	-27.025	1.545	C.2	1	RES1	0.000	
23	 C51	-8.665	-27.908	2.357	C.2	1	RES1	0.000	
24	 C52	-9.084	-29.186	2.452	C.2	1	RES1	0.000	
25	 C53	-7.205	-29.787	3.834	C.2	1	RES1	0.000	
26	 C54	-6.754	-28.403	3.732	C.2	1	RES1	0.000	
27	 C55	-7.442	-27.488	3.042	C.2	1	RES1	0.000	
28	 C56	-7.019	-26.030	2.998	C.3	1	RES1	0.000	
29	 C57	-12.484	-26.598	0.071	C.2	1	RES1	0.000	
30	 C58	-13.136	-26.352	-2.855	C.2	1	RES1	0.000	
31	  F1	-6.569	-25.687	1.735	 F	1	RES1	0.000	
32	  F2	-8.035	-25.173	3.282	 F	1	RES1	0.000	
33	  F3	-5.974	-25.761	3.836	 F	1	RES1	0.000	
@<TRIPOS>BOND
1 4 24 ar
2 4 25 ar
3 5 22 2
4 6 25 2
5 7 8 ar
6 7 30 ar
7 8 9 ar
8 9 10 ar
9 10 11 ar
10 11 12 1
11 11 30 ar
12 12 13 ar
13 12 29 ar
14 13 14 ar
15 14 15 ar
16 1 15 1
17 15 21 ar
18 1 16 1
19 16 17 1
20 2 17 1
21 2 18 1
22 2 19 1
23 19 20 1
24 1 20 1
25 3 21 1
26 21 29 ar
27 3 22 1
28 22 23 1
29 23 24 ar
30 23 27 ar
31 25 26 ar
32 26 27 ar
33 27 28 1
34 28 31 1
35 28 32 1
36 28 33 1
@<TRIPOS>SUBSTRUCTURE
1	RES1	1	GROUP	1 ****	RES
