# created with PyMOL 2.5.2
@<TRIPOS>MOLECULE
WDR5_4QL1_TargetProtein
33 36 1                 
SMALL
USER_CHARGES
@<TRIPOS>ATOM
1	  O6	-9.154	-26.334	0.675	O.2	1	RES1	0.000	
2	  N7	-12.392	-25.473	3.645	N.pl3	1	RES1	0.000	
3	  O7	-6.512	-30.613	4.464	O.2	1	RES1	0.000	
4	  N8	-11.557	-24.691	6.282	N.3	1	RES1	0.000	
5	  N9	-10.916	-27.136	1.945	N.pl3	1	RES1	0.000	
6	 N10	-8.368	-30.088	3.207	N.2	1	RES1	0.000	
7	 C29	-13.529	-26.499	-4.205	C.2	1	RES1	0.000	
8	 C30	-14.877	-26.455	-4.498	C.2	1	RES1	0.000	
9	 C31	-15.827	-26.265	-3.512	C.2	1	RES1	0.000	
10	 C32	-15.421	-26.109	-2.188	C.2	1	RES1	0.000	
11	 C33	-14.062	-26.148	-1.817	C.2	1	RES1	0.000	
12	 C34	-13.629	-25.985	-0.431	C.2	1	RES1	0.000	
13	 C35	-14.362	-25.220	0.476	C.2	1	RES1	0.000	
14	 C36	-13.958	-25.046	1.799	C.2	1	RES1	0.000	
15	 C37	-12.797	-25.668	2.282	C.2	1	RES1	0.000	
16	 C38	-11.072	-24.838	3.841	C.3	1	RES1	0.000	
17	 C39	-10.565	-25.097	5.257	C.3	1	RES1	0.000	
18	 C40	-11.034	-24.918	7.638	C.3	1	RES1	0.000	
19	 C41	-12.852	-25.392	6.069	C.3	1	RES1	0.000	
20	 C42	-13.395	-25.156	4.658	C.3	1	RES1	0.000	
21	 C43	-12.045	-26.466	1.405	C.2	1	RES1	0.000	
22	 C44	-9.599	-27.032	1.561	C.2	1	RES1	0.000	
23	 C45	-8.692	-27.900	2.391	C.2	1	RES1	0.000	
24	 C46	-9.117	-29.188	2.498	C.2	1	RES1	0.000	
25	 C47	-7.165	-29.779	3.846	C.2	1	RES1	0.000	
26	 C48	-6.737	-28.388	3.741	C.2	1	RES1	0.000	
27	 C49	-7.440	-27.456	3.038	C.2	1	RES1	0.000	
28	 C50	-7.022	-26.045	2.949	C.3	1	RES1	0.000	
29	 C51	-12.465	-26.602	0.068	C.2	1	RES1	0.000	
30	 C52	-13.131	-26.331	-2.842	C.2	1	RES1	0.000	
31	  F1	-8.017	-25.167	3.348	 F	1	RES1	0.000	
32	  F2	-6.667	-25.681	1.692	 F	1	RES1	0.000	
33	  F3	-5.961	-25.743	3.736	 F	1	RES1	0.000	
@<TRIPOS>BOND
1 6 24 ar
2 6 25 ar
3 7 8 ar
4 7 30 ar
5 8 9 ar
6 9 10 ar
7 10 11 ar
8 11 12 1
9 11 30 ar
10 12 13 ar
11 12 29 ar
12 13 14 ar
13 14 15 ar
14 2 15 1
15 15 21 ar
16 2 16 1
17 16 17 1
18 4 17 1
19 4 18 1
20 4 19 1
21 19 20 1
22 2 20 1
23 5 21 1
24 21 29 ar
25 1 22 2
26 5 22 1
27 22 23 1
28 23 24 ar
29 23 27 ar
30 3 25 2
31 25 26 ar
32 26 27 ar
33 27 28 1
34 28 31 1
35 28 32 1
36 28 33 1
@<TRIPOS>SUBSTRUCTURE
1	RES1	1	GROUP	1 ****	RES
