# created with PyMOL 2.5.2
@<TRIPOS>MOLECULE
WDR5_4QL1_TargetProtein
33 36 1                 
SMALL
USER_CHARGES
@<TRIPOS>ATOM
1	  O6	-9.128	-26.335	0.656	O.2	1	RES1	0.000	
2	  N7	-12.372	-25.484	3.641	N.pl3	1	RES1	0.000	
3	  O7	-6.539	-30.586	4.504	O.2	1	RES1	0.000	
4	  N8	-11.587	-24.697	6.295	N.3	1	RES1	0.000	
5	  N9	-10.914	-27.131	1.915	N.pl3	1	RES1	0.000	
6	 N10	-8.357	-30.083	3.199	N.2	1	RES1	0.000	
7	 C30	-13.543	-26.527	-4.174	C.2	1	RES1	0.000	
8	 C31	-14.902	-26.463	-4.503	C.2	1	RES1	0.000	
9	 C32	-15.822	-26.235	-3.503	C.2	1	RES1	0.000	
10	 C33	-15.420	-26.082	-2.179	C.2	1	RES1	0.000	
11	 C34	-14.049	-26.147	-1.839	C.2	1	RES1	0.000	
12	 C35	-13.620	-26.000	-0.413	C.2	1	RES1	0.000	
13	 C36	-14.337	-25.201	0.484	C.2	1	RES1	0.000	
14	 C37	-13.960	-25.044	1.816	C.2	1	RES1	0.000	
15	 C38	-12.789	-25.668	2.280	C.2	1	RES1	0.000	
16	 C39	-13.406	-25.240	4.679	C.3	1	RES1	0.000	
17	 C40	-12.808	-25.477	6.077	C.3	1	RES1	0.000	
18	 C41	-11.027	-24.932	7.653	C.3	1	RES1	0.000	
19	 C42	-10.564	-25.017	5.247	C.3	1	RES1	0.000	
20	 C43	-11.093	-24.782	3.825	C.3	1	RES1	0.000	
21	 C44	-12.046	-26.462	1.410	C.2	1	RES1	0.000	
22	 C45	-9.583	-27.039	1.517	C.2	1	RES1	0.000	
23	 C46	-8.666	-27.922	2.356	C.2	1	RES1	0.000	
24	 C47	-9.082	-29.163	2.439	C.2	1	RES1	0.000	
25	 C48	-7.189	-29.771	3.854	C.2	1	RES1	0.000	
26	 C49	-6.743	-28.354	3.774	C.2	1	RES1	0.000	
27	 C50	-7.480	-27.449	3.042	C.2	1	RES1	0.000	
28	 C51	-7.043	-26.004	2.959	C.3	1	RES1	0.000	
29	 C52	-12.458	-26.623	0.068	C.2	1	RES1	0.000	
30	 C53	-13.122	-26.366	-2.839	C.2	1	RES1	0.000	
31	  F1	-8.045	-25.160	3.285	 F	1	RES1	0.000	
32	  F2	-6.631	-25.667	1.704	 F	1	RES1	0.000	
33	  F3	-5.994	-25.769	3.791	 F	1	RES1	0.000	
@<TRIPOS>BOND
1 6 24 ar
2 6 25 ar
3 7 8 ar
4 7 30 ar
5 8 9 ar
6 9 10 ar
7 10 11 ar
8 11 12 1
9 11 30 ar
10 12 13 ar
11 12 29 ar
12 13 14 ar
13 14 15 ar
14 2 15 1
15 15 21 ar
16 2 16 1
17 16 17 1
18 4 17 1
19 4 18 1
20 4 19 1
21 19 20 1
22 2 20 1
23 5 21 1
24 21 29 ar
25 1 22 2
26 5 22 1
27 22 23 1
28 23 24 ar
29 23 27 ar
30 3 25 2
31 25 26 ar
32 26 27 ar
33 27 28 1
34 28 31 1
35 28 32 1
36 28 33 1
@<TRIPOS>SUBSTRUCTURE
1	RES1	1	GROUP	1 ****	RES
