# created with PyMOL 2.5.2
@<TRIPOS>MOLECULE
WDR5_4QL1_TargetProtein
33 36 1                 
SMALL
USER_CHARGES
@<TRIPOS>ATOM
1	  O6	-9.184	-26.471	0.573	O.2	1	RES1	0.000	
2	  N7	-12.347	-25.485	3.676	N.pl3	1	RES1	0.000	
3	  O7	-6.427	-30.543	4.501	O.2	1	RES1	0.000	
4	  N8	-11.694	-24.690	6.344	N.3	1	RES1	0.000	
5	  N9	-10.940	-27.180	1.977	N.pl3	1	RES1	0.000	
6	 N10	-8.282	-30.108	3.192	N.2	1	RES1	0.000	
7	 C31	-13.545	-26.595	-4.128	C.2	1	RES1	0.000	
8	 C32	-14.879	-26.441	-4.501	C.2	1	RES1	0.000	
9	 C33	-15.804	-26.100	-3.503	C.2	1	RES1	0.000	
10	 C34	-15.381	-25.983	-2.152	C.2	1	RES1	0.000	
11	 C35	-14.037	-26.122	-1.786	C.2	1	RES1	0.000	
12	 C36	-13.599	-25.969	-0.412	C.2	1	RES1	0.000	
13	 C37	-14.260	-25.068	0.480	C.2	1	RES1	0.000	
14	 C38	-13.829	-24.941	1.792	C.2	1	RES1	0.000	
15	 C39	-12.761	-25.654	2.316	C.2	1	RES1	0.000	
16	 C40	-13.430	-25.113	4.622	C.3	1	RES1	0.000	
17	 C41	-12.966	-25.354	6.060	C.3	1	RES1	0.000	
18	 C42	-11.284	-24.930	7.744	C.3	1	RES1	0.000	
19	 C43	-10.628	-25.147	5.412	C.3	1	RES1	0.000	
20	 C44	-11.046	-24.904	3.932	C.3	1	RES1	0.000	
21	 C45	-12.079	-26.526	1.434	C.2	1	RES1	0.000	
22	 C46	-9.605	-27.101	1.530	C.2	1	RES1	0.000	
23	 C47	-8.663	-27.947	2.361	C.2	1	RES1	0.000	
24	 C48	-9.033	-29.238	2.477	C.2	1	RES1	0.000	
25	 C49	-7.119	-29.764	3.854	C.2	1	RES1	0.000	
26	 C50	-6.716	-28.341	3.730	C.2	1	RES1	0.000	
27	 C51	-7.476	-27.433	3.009	C.2	1	RES1	0.000	
28	 C52	-7.031	-26.028	2.825	C.3	1	RES1	0.000	
29	 C53	-12.501	-26.688	0.114	C.2	1	RES1	0.000	
30	 C54	-13.136	-26.468	-2.826	C.2	1	RES1	0.000	
31	  F1	-6.819	-25.669	1.542	 F	1	RES1	0.000	
32	  F2	-7.955	-25.168	3.348	 F	1	RES1	0.000	
33	  F3	-5.881	-25.735	3.479	 F	1	RES1	0.000	
@<TRIPOS>BOND
1 6 24 ar
2 6 25 ar
3 7 8 ar
4 7 30 ar
5 8 9 ar
6 9 10 ar
7 10 11 ar
8 11 12 1
9 11 30 ar
10 12 13 ar
11 12 29 ar
12 13 14 ar
13 14 15 ar
14 2 15 1
15 15 21 ar
16 2 16 1
17 16 17 1
18 4 17 1
19 4 18 1
20 4 19 1
21 19 20 1
22 2 20 1
23 5 21 1
24 21 29 ar
25 1 22 2
26 5 22 1
27 22 23 1
28 23 24 ar
29 23 27 ar
30 3 25 2
31 25 26 ar
32 26 27 ar
33 27 28 1
34 28 31 1
35 28 32 1
36 28 33 1
@<TRIPOS>SUBSTRUCTURE
1	RES1	1	GROUP	1 ****	RES
