# created with PyMOL 2.5.2
@<TRIPOS>MOLECULE
WDR5_4QL1_TargetProtein
33 36 1                 
SMALL
USER_CHARGES
@<TRIPOS>ATOM
1	  O6	-9.195	-26.430	0.589	O.2	1	RES1	0.000	
2	  N7	-12.386	-25.453	3.691	N.pl3	1	RES1	0.000	
3	  O7	-6.422	-30.581	4.410	O.2	1	RES1	0.000	
4	  N8	-11.706	-24.674	6.378	N.3	1	RES1	0.000	
5	  N9	-10.942	-27.128	2.003	N.pl3	1	RES1	0.000	
6	 N10	-8.289	-30.120	3.123	N.2	1	RES1	0.000	
7	 C32	-13.478	-26.605	-4.101	C.2	1	RES1	0.000	
8	 C33	-14.802	-26.480	-4.467	C.2	1	RES1	0.000	
9	 C34	-15.773	-26.197	-3.499	C.2	1	RES1	0.000	
10	 C35	-15.336	-26.032	-2.172	C.2	1	RES1	0.000	
11	 C36	-14.035	-26.146	-1.788	C.2	1	RES1	0.000	
12	 C37	-13.609	-25.984	-0.374	C.2	1	RES1	0.000	
13	 C38	-14.287	-25.118	0.481	C.2	1	RES1	0.000	
14	 C39	-13.882	-24.934	1.807	C.2	1	RES1	0.000	
15	 C40	-12.786	-25.622	2.336	C.2	1	RES1	0.000	
16	 C41	-11.044	-24.923	3.979	C.3	1	RES1	0.000	
17	 C42	-10.711	-25.173	5.447	C.3	1	RES1	0.000	
18	 C43	-11.306	-24.931	7.763	C.3	1	RES1	0.000	
19	 C44	-13.025	-25.260	6.068	C.3	1	RES1	0.000	
20	 C45	-13.460	-24.998	4.622	C.3	1	RES1	0.000	
21	 C46	-12.084	-26.494	1.492	C.2	1	RES1	0.000	
22	 C47	-9.630	-27.053	1.553	C.2	1	RES1	0.000	
23	 C48	-8.698	-27.926	2.344	C.2	1	RES1	0.000	
24	 C49	-9.061	-29.216	2.436	C.2	1	RES1	0.000	
25	 C50	-7.106	-29.794	3.766	C.2	1	RES1	0.000	
26	 C51	-6.669	-28.358	3.653	C.2	1	RES1	0.000	
27	 C52	-7.452	-27.484	2.972	C.2	1	RES1	0.000	
28	 C53	-7.002	-26.042	2.839	C.3	1	RES1	0.000	
29	 C54	-12.516	-26.665	0.150	C.2	1	RES1	0.000	
30	 C55	-13.084	-26.448	-2.795	C.2	1	RES1	0.000	
31	  F1	-6.756	-25.713	1.525	 F	1	RES1	0.000	
32	  F2	-7.944	-25.162	3.292	 F	1	RES1	0.000	
33	  F3	-5.863	-25.766	3.492	 F	1	RES1	0.000	
@<TRIPOS>BOND
1 6 24 ar
2 6 25 ar
3 7 8 ar
4 7 30 ar
5 8 9 ar
6 9 10 ar
7 10 11 ar
8 11 12 1
9 11 30 ar
10 12 13 ar
11 12 29 ar
12 13 14 ar
13 14 15 ar
14 2 15 1
15 15 21 ar
16 2 16 1
17 16 17 1
18 4 17 1
19 4 18 1
20 4 19 1
21 19 20 1
22 2 20 1
23 5 21 1
24 21 29 ar
25 1 22 2
26 5 22 1
27 22 23 1
28 23 24 ar
29 23 27 ar
30 3 25 2
31 25 26 ar
32 26 27 ar
33 27 28 1
34 28 31 1
35 28 32 1
36 28 33 1
@<TRIPOS>SUBSTRUCTURE
1	RES1	1	GROUP	1 ****	RES
