# created with PyMOL 2.5.2
@<TRIPOS>MOLECULE
WDR5_4QL1_TargetProtein
33 36 1                 
SMALL
USER_CHARGES
@<TRIPOS>ATOM
1	  O6	-9.122	-26.327	0.636	O.2	1	RES1	0.000	
2	  N7	-12.374	-25.494	3.647	N.pl3	1	RES1	0.000	
3	  O7	-6.538	-30.628	4.458	O.2	1	RES1	0.000	
4	  N8	-11.558	-24.668	6.271	N.3	1	RES1	0.000	
5	  N9	-10.902	-27.119	1.915	N.pl3	1	RES1	0.000	
6	 N10	-8.381	-30.105	3.181	N.2	1	RES1	0.000	
7	 C33	-13.533	-26.518	-4.184	C.2	1	RES1	0.000	
8	 C34	-14.881	-26.457	-4.517	C.2	1	RES1	0.000	
9	 C35	-15.832	-26.254	-3.506	C.2	1	RES1	0.000	
10	 C36	-15.406	-26.115	-2.173	C.2	1	RES1	0.000	
11	 C37	-14.053	-26.164	-1.831	C.2	1	RES1	0.000	
12	 C38	-13.633	-26.008	-0.416	C.2	1	RES1	0.000	
13	 C39	-14.362	-25.218	0.480	C.2	1	RES1	0.000	
14	 C40	-13.976	-25.082	1.825	C.2	1	RES1	0.000	
15	 C41	-12.807	-25.666	2.296	C.2	1	RES1	0.000	
16	 C42	-11.074	-24.840	3.845	C.3	1	RES1	0.000	
17	 C43	-10.550	-25.080	5.263	C.3	1	RES1	0.000	
18	 C44	-11.036	-24.910	7.641	C.3	1	RES1	0.000	
19	 C45	-12.831	-25.379	6.079	C.3	1	RES1	0.000	
20	 C46	-13.394	-25.167	4.680	C.3	1	RES1	0.000	
21	 C47	-12.044	-26.439	1.405	C.2	1	RES1	0.000	
22	 C48	-9.580	-27.019	1.540	C.2	1	RES1	0.000	
23	 C49	-8.672	-27.894	2.361	C.2	1	RES1	0.000	
24	 C50	-9.116	-29.167	2.457	C.2	1	RES1	0.000	
25	 C51	-7.206	-29.797	3.813	C.2	1	RES1	0.000	
26	 C52	-6.733	-28.368	3.749	C.2	1	RES1	0.000	
27	 C53	-7.465	-27.456	3.047	C.2	1	RES1	0.000	
28	 C54	-7.027	-26.024	2.985	C.3	1	RES1	0.000	
29	 C55	-12.477	-26.605	0.063	C.2	1	RES1	0.000	
30	 C56	-13.123	-26.364	-2.882	C.2	1	RES1	0.000	
31	  F1	-8.020	-25.162	3.355	 F	1	RES1	0.000	
32	  F2	-6.661	-25.645	1.747	 F	1	RES1	0.000	
33	  F3	-5.968	-25.768	3.787	 F	1	RES1	0.000	
@<TRIPOS>BOND
1 6 24 ar
2 6 25 ar
3 7 8 ar
4 7 30 ar
5 8 9 ar
6 9 10 ar
7 10 11 ar
8 11 12 1
9 11 30 ar
10 12 13 ar
11 12 29 ar
12 13 14 ar
13 14 15 ar
14 2 15 1
15 15 21 ar
16 2 16 1
17 16 17 1
18 4 17 1
19 4 18 1
20 4 19 1
21 19 20 1
22 2 20 1
23 5 21 1
24 21 29 ar
25 1 22 2
26 5 22 1
27 22 23 1
28 23 24 ar
29 23 27 ar
30 3 25 2
31 25 26 ar
32 26 27 ar
33 27 28 1
34 28 31 1
35 28 32 1
36 28 33 1
@<TRIPOS>SUBSTRUCTURE
1	RES1	1	GROUP	1 ****	RES
