# created with PyMOL 2.5.2
@<TRIPOS>MOLECULE
WDR5_4QL1_TargetProtein
33 36 1                 
SMALL
USER_CHARGES
@<TRIPOS>ATOM
1	  N6	-12.381	-26.049	3.914	N.pl3	1	RES1	0.000	
2	  O6	-9.091	-26.273	0.822	O.2	1	RES1	0.000	
3	  N7	-12.059	-24.142	6.068	N.3	1	RES1	0.000	
4	  O7	-6.160	-30.897	3.927	O.2	1	RES1	0.000	
5	  N8	-10.823	-27.387	1.967	N.pl3	1	RES1	0.000	
6	  N9	-8.099	-30.359	2.819	N.2	1	RES1	0.000	
7	 C23	-13.437	-26.062	-3.990	C.2	1	RES1	0.000	
8	 C24	-14.797	-25.989	-4.326	C.2	1	RES1	0.000	
9	 C25	-15.741	-25.936	-3.314	C.2	1	RES1	0.000	
10	 C26	-15.350	-25.963	-1.983	C.2	1	RES1	0.000	
11	 C27	-14.018	-26.012	-1.622	C.2	1	RES1	0.000	
12	 C28	-13.584	-26.036	-0.185	C.2	1	RES1	0.000	
13	 C29	-14.355	-25.450	0.817	C.2	1	RES1	0.000	
14	 C30	-13.981	-25.477	2.129	C.2	1	RES1	0.000	
15	 C31	-12.780	-26.057	2.552	C.2	1	RES1	0.000	
16	 C32	-13.380	-25.988	5.009	C.3	1	RES1	0.000	
17	 C33	-13.384	-24.581	5.631	C.3	1	RES1	0.000	
18	 C34	-12.073	-22.812	6.685	C.3	1	RES1	0.000	
19	 C35	-11.113	-24.201	4.913	C.3	1	RES1	0.000	
20	 C36	-11.031	-25.557	4.255	C.3	1	RES1	0.000	
21	 C37	-11.991	-26.668	1.547	C.2	1	RES1	0.000	
22	 C38	-9.519	-27.171	1.574	C.2	1	RES1	0.000	
23	 C39	-8.551	-28.093	2.251	C.2	1	RES1	0.000	
24	 C40	-8.903	-29.402	2.227	C.2	1	RES1	0.000	
25	 C41	-6.908	-30.036	3.438	C.2	1	RES1	0.000	
26	 C42	-6.531	-28.590	3.485	C.2	1	RES1	0.000	
27	 C43	-7.306	-27.653	2.923	C.2	1	RES1	0.000	
28	 C44	-6.967	-26.190	2.969	C.3	1	RES1	0.000	
29	 C45	-12.398	-26.658	0.208	C.2	1	RES1	0.000	
30	 C46	-13.050	-26.082	-2.675	C.2	1	RES1	0.000	
31	  F1	-7.982	-25.462	3.502	 F	1	RES1	0.000	
32	  F2	-6.693	-25.695	1.732	 F	1	RES1	0.000	
33	  F3	-5.888	-25.966	3.751	 F	1	RES1	0.000	
@<TRIPOS>BOND
1 7 8 ar
2 7 30 ar
3 8 9 ar
4 9 10 ar
5 10 11 ar
6 11 12 1
7 11 30 ar
8 12 13 ar
9 12 29 ar
10 13 14 ar
11 14 15 ar
12 1 15 1
13 15 21 ar
14 1 16 1
15 16 17 1
16 3 17 1
17 3 18 1
18 3 19 1
19 19 20 1
20 1 20 1
21 5 21 1
22 21 29 ar
23 2 22 2
24 5 22 1
25 22 23 1
26 23 24 ar
27 23 27 ar
28 6 24 ar
29 4 25 2
30 6 25 ar
31 25 26 ar
32 26 27 ar
33 27 28 1
34 28 31 1
35 28 32 1
36 28 33 1
@<TRIPOS>SUBSTRUCTURE
1	RES1	1	GROUP	1 ****	RES
