# created with PyMOL 2.5.2
@<TRIPOS>MOLECULE
WDR5_4QL1_TargetProtein
33 36 1                 
SMALL
USER_CHARGES
@<TRIPOS>ATOM
1	  N5	-12.379	-25.533	3.657	N.pl3	1	RES1	0.000	
2	  N6	-11.531	-24.675	6.283	N.3	1	RES1	0.000	
3	  O6	-9.115	-26.309	0.661	O.2	1	RES1	0.000	
4	  N7	-10.908	-27.132	1.929	N.pl3	1	RES1	0.000	
5	  O7	-6.559	-30.610	4.494	O.2	1	RES1	0.000	
6	  N8	-8.388	-30.083	3.170	N.2	1	RES1	0.000	
7	 C19	-13.566	-26.493	-4.192	C.2	1	RES1	0.000	
8	 C20	-14.892	-26.422	-4.501	C.2	1	RES1	0.000	
9	 C21	-15.823	-26.260	-3.500	C.2	1	RES1	0.000	
10	 C22	-15.420	-26.137	-2.170	C.2	1	RES1	0.000	
11	 C23	-14.043	-26.150	-1.823	C.2	1	RES1	0.000	
12	 C24	-13.615	-25.992	-0.452	C.2	1	RES1	0.000	
13	 C25	-14.359	-25.226	0.479	C.2	1	RES1	0.000	
14	 C26	-13.954	-25.079	1.810	C.2	1	RES1	0.000	
15	 C27	-12.828	-25.689	2.272	C.2	1	RES1	0.000	
16	 C28	-11.043	-24.903	3.824	C.3	1	RES1	0.000	
17	 C29	-10.544	-25.114	5.249	C.3	1	RES1	0.000	
18	 C30	-11.038	-24.910	7.646	C.3	1	RES1	0.000	
19	 C31	-12.846	-25.358	6.089	C.3	1	RES1	0.000	
20	 C32	-13.398	-25.118	4.654	C.3	1	RES1	0.000	
21	 C33	-12.063	-26.469	1.417	C.2	1	RES1	0.000	
22	 C34	-9.578	-27.012	1.525	C.2	1	RES1	0.000	
23	 C35	-8.661	-27.911	2.357	C.2	1	RES1	0.000	
24	 C36	-9.087	-29.174	2.461	C.2	1	RES1	0.000	
25	 C37	-7.202	-29.778	3.876	C.2	1	RES1	0.000	
26	 C38	-6.744	-28.378	3.762	C.2	1	RES1	0.000	
27	 C39	-7.453	-27.461	3.047	C.2	1	RES1	0.000	
28	 C40	-7.021	-26.003	2.979	C.3	1	RES1	0.000	
29	 C41	-12.472	-26.610	0.051	C.2	1	RES1	0.000	
30	 C42	-13.151	-26.351	-2.880	C.2	1	RES1	0.000	
31	  F1	-8.036	-25.150	3.316	 F	1	RES1	0.000	
32	  F2	-6.638	-25.671	1.725	 F	1	RES1	0.000	
33	  F3	-5.979	-25.746	3.801	 F	1	RES1	0.000	
@<TRIPOS>BOND
1 7 8 ar
2 7 30 ar
3 8 9 ar
4 9 10 ar
5 10 11 ar
6 11 12 1
7 11 30 ar
8 12 13 ar
9 12 29 ar
10 13 14 ar
11 14 15 ar
12 1 15 1
13 15 21 ar
14 1 16 1
15 16 17 1
16 2 17 1
17 2 18 1
18 2 19 1
19 19 20 1
20 1 20 1
21 4 21 1
22 21 29 ar
23 3 22 2
24 4 22 1
25 22 23 1
26 23 24 ar
27 23 27 ar
28 6 24 ar
29 5 25 2
30 6 25 ar
31 25 26 ar
32 26 27 ar
33 27 28 1
34 28 31 1
35 28 32 1
36 28 33 1
@<TRIPOS>SUBSTRUCTURE
1	RES1	1	GROUP	1 ****	RES
