# created with PyMOL 2.5.2
@<TRIPOS>MOLECULE
BRD4_4F3I_TargetProtein
29 32 1                 
SMALL
USER_CHARGES
@<TRIPOS>ATOM
1	 CL1	30.139	48.936	-7.026	Cl	1	RES1	0.000	
2	  C1	22.241	54.482	-5.157	C.3	1	RES1	0.000	
3	  N1	25.335	51.098	-2.911	N.2	1	RES1	0.000	
4	  O1	22.208	53.312	-4.329	O.3	1	RES1	0.000	
5	  S1	27.442	50.537	1.327	S.2	1	RES1	0.000	
6	  C2	23.311	53.150	-3.505	C.2	1	RES1	0.000	
7	  O2	24.266	53.885	-3.494	O.co2	1	RES1	0.000	
8	  C3	23.109	51.914	-2.631	C.3	1	RES1	0.000	
9	  O3	30.092	51.546	2.417	O.2	1	RES1	0.000	
10	  C4	24.372	51.588	-1.892	C.3	1	RES1	0.000	
11	  C5	26.577	50.852	-2.599	C.2	1	RES1	0.000	
12	  C6	27.486	50.374	-3.665	C.2	1	RES1	0.000	
13	  N6	25.153	50.066	-0.024	N.2	1	RES1	0.000	
14	  C7	27.334	50.881	-4.977	C.2	1	RES1	0.000	
15	  N7	23.225	49.119	0.533	N.2	1	RES1	0.000	
16	  C8	28.175	50.460	-5.997	C.2	1	RES1	0.000	
17	  N8	22.977	49.942	-0.554	N.2	1	RES1	0.000	
18	  C9	29.131	49.467	-5.758	C.2	1	RES1	0.000	
19	 C10	29.270	48.948	-4.487	C.2	1	RES1	0.000	
20	 C11	28.448	49.373	-3.446	C.2	1	RES1	0.000	
21	 C12	27.137	50.988	-1.224	C.2	1	RES1	0.000	
22	 C13	26.464	50.507	-0.086	C.2	1	RES1	0.000	
23	 C14	28.708	51.370	0.476	C.2	1	RES1	0.000	
24	 C15	29.879	51.736	1.225	C.2	1	RES1	0.000	
25	 C34	28.399	51.562	-0.858	C.2	1	RES1	0.000	
26	 C35	29.315	52.297	-1.807	C.3	1	RES1	0.000	
27	 C36	24.467	49.215	0.841	C.2	1	RES1	0.000	
28	 C37	25.114	48.406	1.948	C.3	1	RES1	0.000	
29	 C38	24.131	50.507	-0.855	C.2	1	RES1	0.000	
@<TRIPOS>BOND
1 1 18 1
2 2 4 1
3 3 10 1
4 3 11 2
5 4 6 1
6 5 22 ar
7 5 23 ar
8 6 8 1
9 6 7 2
10 8 10 1
11 11 12 1
12 12 14 ar
13 14 16 ar
14 15 17 ar
15 16 18 ar
16 18 19 ar
17 19 20 ar
18 12 20 ar
19 11 21 1
20 21 22 ar
21 21 25 ar
22 13 22 1
23 23 24 1
24 23 25 ar
25 9 24 2
26 25 26 1
27 13 27 ar
28 15 27 ar
29 27 28 1
30 10 29 1
31 13 29 ar
32 17 29 ar
@<TRIPOS>SUBSTRUCTURE
1	RES1	1	GROUP	1 ****	RES
