# created with PyMOL 2.5.2
@<TRIPOS>MOLECULE
WDR5_4QL1_TargetProtein
33 36 1                 
SMALL
USER_CHARGES
@<TRIPOS>ATOM
1	  N5	-12.446	-26.044	3.988	N.pl3	1	RES1	0.000	
2	  N6	-12.138	-24.133	6.155	N.3	1	RES1	0.000	
3	  O6	-9.234	-26.384	0.727	O.2	1	RES1	0.000	
4	  N7	-10.858	-27.419	2.074	N.pl3	1	RES1	0.000	
5	  O7	-6.123	-30.861	3.839	O.2	1	RES1	0.000	
6	  N8	-8.052	-30.366	2.719	N.2	1	RES1	0.000	
7	 C20	-13.348	-26.230	-3.938	C.2	1	RES1	0.000	
8	 C21	-14.656	-26.075	-4.314	C.2	1	RES1	0.000	
9	 C22	-15.636	-25.898	-3.315	C.2	1	RES1	0.000	
10	 C23	-15.266	-25.875	-1.997	C.2	1	RES1	0.000	
11	 C24	-13.937	-26.018	-1.583	C.2	1	RES1	0.000	
12	 C25	-13.561	-26.024	-0.174	C.2	1	RES1	0.000	
13	 C26	-14.269	-25.286	0.799	C.2	1	RES1	0.000	
14	 C27	-13.882	-25.299	2.158	C.2	1	RES1	0.000	
15	 C28	-12.803	-26.047	2.603	C.2	1	RES1	0.000	
16	 C29	-11.077	-25.645	4.447	C.3	1	RES1	0.000	
17	 C30	-11.109	-24.262	5.101	C.3	1	RES1	0.000	
18	 C31	-12.113	-22.798	6.740	C.3	1	RES1	0.000	
19	 C32	-13.469	-24.464	5.601	C.3	1	RES1	0.000	
20	 C33	-13.521	-25.883	4.997	C.3	1	RES1	0.000	
21	 C34	-12.064	-26.759	1.640	C.2	1	RES1	0.000	
22	 C35	-9.592	-27.190	1.601	C.2	1	RES1	0.000	
23	 C36	-8.589	-28.099	2.222	C.2	1	RES1	0.000	
24	 C37	-8.881	-29.406	2.156	C.2	1	RES1	0.000	
25	 C38	-6.862	-30.034	3.342	C.2	1	RES1	0.000	
26	 C39	-6.525	-28.576	3.369	C.2	1	RES1	0.000	
27	 C40	-7.330	-27.628	2.843	C.2	1	RES1	0.000	
28	 C41	-6.998	-26.192	2.884	C.3	1	RES1	0.000	
29	 C42	-12.459	-26.754	0.279	C.2	1	RES1	0.000	
30	 C43	-12.967	-26.195	-2.593	C.2	1	RES1	0.000	
31	  F1	-6.785	-25.679	1.611	 F	1	RES1	0.000	
32	  F2	-7.955	-25.430	3.454	 F	1	RES1	0.000	
33	  F3	-5.829	-25.954	3.582	 F	1	RES1	0.000	
@<TRIPOS>BOND
1 7 8 ar
2 7 30 ar
3 8 9 ar
4 9 10 ar
5 10 11 ar
6 11 12 1
7 11 30 ar
8 12 13 ar
9 12 29 ar
10 13 14 ar
11 14 15 ar
12 1 15 1
13 15 21 ar
14 1 16 1
15 16 17 1
16 2 17 1
17 2 18 1
18 2 19 1
19 19 20 1
20 1 20 1
21 4 21 1
22 21 29 ar
23 3 22 2
24 4 22 1
25 22 23 1
26 23 24 ar
27 23 27 ar
28 6 24 ar
29 5 25 2
30 6 25 ar
31 25 26 ar
32 26 27 ar
33 27 28 1
34 28 31 1
35 28 32 1
36 28 33 1
@<TRIPOS>SUBSTRUCTURE
1	RES1	1	GROUP	1 ****	RES
