# created with PyMOL 2.5.2
@<TRIPOS>MOLECULE
WDR5_4QL1_TargetProtein
34 37 1                 
SMALL
USER_CHARGES
@<TRIPOS>ATOM
1	  N5	-12.376	-25.492	3.680	N.pl3	1	RES1	0.000	
2	  N6	-11.550	-24.677	6.276	N.3	1	RES1	0.000	
3	  O6	-9.138	-26.415	0.693	O.2	1	RES1	0.000	
4	  N7	-10.968	-27.189	1.961	N.pl3	1	RES1	0.000	
5	  O7	-6.412	-30.554	4.482	O.2	1	RES1	0.000	
6	  N8	-8.310	-30.096	3.255	N.2	1	RES1	0.000	
7	 C19	-15.776	-26.226	-3.545	C.2	1	RES1	0.000	
8	 C20	-14.815	-26.428	-4.528	C.2	1	RES1	0.000	
9	 C21	-13.463	-26.474	-4.179	C.2	1	RES1	0.000	
10	 C22	-13.093	-26.321	-2.844	C.2	1	RES1	0.000	
11	 C23	-14.064	-26.135	-1.816	C.2	1	RES1	0.000	
12	 C24	-13.640	-25.957	-0.399	C.2	1	RES1	0.000	
13	 C25	-14.363	-25.156	0.509	C.2	1	RES1	0.000	
14	 C26	-13.957	-25.024	1.817	C.2	1	RES1	0.000	
15	 C27	-12.810	-25.670	2.321	C.2	1	RES1	0.000	
16	 C28	-11.039	-24.898	3.843	C.3	1	RES1	0.000	
17	 C29	-10.561	-25.137	5.260	C.3	1	RES1	0.000	
18	 C30	-11.048	-24.888	7.660	C.3	1	RES1	0.000	
19	 C31	-12.871	-25.349	6.085	C.3	1	RES1	0.000	
20	 C32	-13.399	-25.114	4.645	C.3	1	RES1	0.000	
21	 C33	-12.078	-26.495	1.419	C.2	1	RES1	0.000	
22	 C34	-9.651	-27.115	1.577	C.2	1	RES1	0.000	
23	 C35	-8.730	-27.971	2.395	C.2	1	RES1	0.000	
24	 C36	-9.091	-29.246	2.553	C.2	1	RES1	0.000	
25	 C37	-7.136	-29.767	3.865	C.2	1	RES1	0.000	
26	 C38	-6.718	-28.336	3.709	C.2	1	RES1	0.000	
27	 C39	-7.466	-27.473	3.016	C.2	1	RES1	0.000	
28	 C40	-7.084	-26.019	2.893	C.3	1	RES1	0.000	
29	 C41	-12.495	-26.620	0.083	C.2	1	RES1	0.000	
30	 C42	-15.389	-26.072	-2.184	C.2	1	RES1	0.000	
31	  F1	-11.782	-26.421	-2.545	 F	1	RES1	0.000	
32	  F2	-6.743	-25.702	1.616	 F	1	RES1	0.000	
33	  F3	-8.078	-25.194	3.246	 F	1	RES1	0.000	
34	  F4	-6.023	-25.697	3.649	 F	1	RES1	0.000	
@<TRIPOS>BOND
1 7 8 ar
2 7 30 ar
3 8 9 ar
4 9 10 ar
5 10 11 ar
6 11 12 1
7 11 30 ar
8 12 13 ar
9 12 29 ar
10 13 14 ar
11 14 15 ar
12 1 15 1
13 15 21 ar
14 1 16 1
15 16 17 1
16 2 17 1
17 2 18 1
18 2 19 1
19 19 20 1
20 1 20 1
21 4 21 1
22 21 29 ar
23 3 22 2
24 4 22 1
25 22 23 1
26 23 24 ar
27 23 27 ar
28 6 24 ar
29 5 25 2
30 6 25 ar
31 25 26 ar
32 26 27 ar
33 27 28 1
34 10 31 1
35 28 32 1
36 28 33 1
37 28 34 1
@<TRIPOS>SUBSTRUCTURE
1	RES1	1	GROUP	1 ****	RES
