# created with PyMOL 2.5.2
@<TRIPOS>MOLECULE
WDR5_4QL1_TargetProtein
35 38 1                 
SMALL
USER_CHARGES
@<TRIPOS>ATOM
1	  N5	-12.380	-25.455	3.623	N.pl3	1	RES1	0.000	
2	  N6	-11.537	-24.703	6.314	N.3	1	RES1	0.000	
3	  O6	-9.147	-26.238	0.740	O.2	1	RES1	0.000	
4	  N7	-10.914	-27.145	1.946	N.pl3	1	RES1	0.000	
5	  O7	-6.527	-30.631	4.393	O.2	1	RES1	0.000	
6	  N8	-8.374	-30.114	3.146	N.2	1	RES1	0.000	
7	 C19	-15.820	-26.282	-3.502	C.2	1	RES1	0.000	
8	 C20	-14.893	-26.496	-4.521	C.2	1	RES1	0.000	
9	 C21	-13.520	-26.559	-4.200	C.2	1	RES1	0.000	
10	 C22	-13.124	-26.381	-2.854	C.2	1	RES1	0.000	
11	 C23	-14.057	-26.180	-1.830	C.2	1	RES1	0.000	
12	 C24	-13.626	-25.974	-0.441	C.2	1	RES1	0.000	
13	 C25	-14.345	-25.178	0.472	C.2	1	RES1	0.000	
14	 C26	-13.942	-25.021	1.765	C.2	1	RES1	0.000	
15	 C27	-12.780	-25.638	2.281	C.2	1	RES1	0.000	
16	 C28	-13.390	-25.205	4.669	C.3	1	RES1	0.000	
17	 C29	-12.789	-25.454	6.062	C.3	1	RES1	0.000	
18	 C30	-13.890	-25.146	7.085	C.3	1	RES1	0.000	
19	 C31	-10.990	-24.956	7.654	C.3	1	RES1	0.000	
20	 C32	-10.537	-24.991	5.215	C.3	1	RES1	0.000	
21	 C33	-9.254	-24.175	5.377	C.3	1	RES1	0.000	
22	 C34	-11.124	-24.720	3.847	C.3	1	RES1	0.000	
23	 C35	-12.069	-26.464	1.405	C.2	1	RES1	0.000	
24	 C36	-9.611	-27.005	1.579	C.2	1	RES1	0.000	
25	 C37	-8.690	-27.892	2.384	C.2	1	RES1	0.000	
26	 C38	-9.107	-29.175	2.459	C.2	1	RES1	0.000	
27	 C39	-7.171	-29.814	3.791	C.2	1	RES1	0.000	
28	 C40	-6.747	-28.372	3.720	C.2	1	RES1	0.000	
29	 C41	-7.476	-27.468	3.040	C.2	1	RES1	0.000	
30	 C42	-7.052	-26.031	3.015	C.3	1	RES1	0.000	
31	 C43	-12.489	-26.611	0.076	C.2	1	RES1	0.000	
32	 C44	-15.420	-26.138	-2.197	C.2	1	RES1	0.000	
33	  F1	-6.027	-25.744	3.865	 F	1	RES1	0.000	
34	  F2	-6.605	-25.668	1.762	 F	1	RES1	0.000	
35	  F3	-8.055	-25.205	3.335	 F	1	RES1	0.000	
@<TRIPOS>BOND
1 7 8 ar
2 7 32 ar
3 8 9 ar
4 9 10 ar
5 10 11 ar
6 11 12 1
7 11 32 ar
8 12 13 ar
9 12 31 ar
10 13 14 ar
11 14 15 ar
12 1 15 1
13 15 23 ar
14 1 16 1
15 16 17 1
16 2 17 1
17 17 18 1
18 2 19 1
19 2 20 1
20 20 21 1
21 20 22 1
22 1 22 1
23 4 23 1
24 23 31 ar
25 3 24 2
26 4 24 1
27 24 25 1
28 25 26 ar
29 25 29 ar
30 6 26 ar
31 5 27 2
32 6 27 ar
33 27 28 ar
34 28 29 ar
35 29 30 1
36 30 33 1
37 30 34 1
38 30 35 1
@<TRIPOS>SUBSTRUCTURE
1	RES1	1	GROUP	1 ****	RES
