# created with PyMOL 2.5.2
@<TRIPOS>MOLECULE
WDR5_4QL1_TargetProtein
36 39 1                 
SMALL
USER_CHARGES
@<TRIPOS>ATOM
1	  N5	-12.360	-25.435	3.624	N.pl3	1	RES1	0.000	
2	  N6	-11.624	-24.672	6.322	N.3	1	RES1	0.000	
3	  O6	-9.184	-26.300	0.735	O.2	1	RES1	0.000	
4	  N7	-10.951	-27.171	1.966	N.pl3	1	RES1	0.000	
5	  O7	-6.493	-30.627	4.402	O.2	1	RES1	0.000	
6	  N8	-8.291	-30.117	3.065	N.2	1	RES1	0.000	
7	 C19	-15.812	-26.259	-3.526	C.2	1	RES1	0.000	
8	 C20	-14.865	-26.544	-4.521	C.2	1	RES1	0.000	
9	 C21	-13.531	-26.632	-4.189	C.2	1	RES1	0.000	
10	 C22	-13.130	-26.466	-2.874	C.2	1	RES1	0.000	
11	 C23	-14.023	-26.195	-1.841	C.2	1	RES1	0.000	
12	 C24	-13.596	-25.994	-0.439	C.2	1	RES1	0.000	
13	 C25	-14.248	-25.113	0.414	C.2	1	RES1	0.000	
14	 C26	-13.842	-24.902	1.696	C.2	1	RES1	0.000	
15	 C27	-12.778	-25.618	2.252	C.2	1	RES1	0.000	
16	 C28	-13.403	-25.049	4.577	C.3	1	RES1	0.000	
17	 C29	-12.941	-25.302	6.013	C.3	1	RES1	0.000	
18	 C30	-14.079	-24.841	6.945	C.3	1	RES1	0.000	
19	 C31	-11.191	-24.954	7.715	C.3	1	RES1	0.000	
20	 C32	-10.579	-25.102	5.304	C.3	1	RES1	0.000	
21	 C33	-9.222	-24.424	5.531	C.3	1	RES1	0.000	
22	 C34	-11.048	-24.792	3.877	C.3	1	RES1	0.000	
23	 C35	-12.091	-26.515	1.417	C.2	1	RES1	0.000	
24	 C36	-9.613	-27.019	1.591	C.2	1	RES1	0.000	
25	 C37	-8.702	-27.888	2.360	C.2	1	RES1	0.000	
26	 C38	-9.039	-29.218	2.371	C.2	1	RES1	0.000	
27	 C39	-7.140	-29.809	3.786	C.2	1	RES1	0.000	
28	 C40	-6.767	-28.387	3.777	C.2	1	RES1	0.000	
29	 C41	-7.504	-27.470	3.103	C.2	1	RES1	0.000	
30	 C42	-7.066	-26.017	3.037	C.3	1	RES1	0.000	
31	 C43	-12.516	-26.688	0.104	C.2	1	RES1	0.000	
32	 C44	-15.382	-26.074	-2.222	C.2	1	RES1	0.000	
33	  F1	-11.813	-26.612	-2.605	 F	1	RES1	0.000	
34	  F2	-6.165	-25.725	4.054	 F	1	RES1	0.000	
35	  F3	-6.404	-25.700	1.889	 F	1	RES1	0.000	
36	  F4	-8.053	-25.156	3.180	 F	1	RES1	0.000	
@<TRIPOS>BOND
1 7 8 ar
2 7 32 ar
3 8 9 ar
4 9 10 ar
5 10 11 ar
6 11 12 1
7 11 32 ar
8 12 13 ar
9 12 31 ar
10 13 14 ar
11 14 15 ar
12 1 15 1
13 15 23 ar
14 1 16 1
15 16 17 1
16 2 17 1
17 17 18 1
18 2 19 1
19 2 20 1
20 20 21 1
21 20 22 1
22 1 22 1
23 4 23 1
24 23 31 ar
25 3 24 2
26 4 24 1
27 24 25 1
28 25 26 ar
29 25 29 ar
30 6 26 ar
31 5 27 2
32 6 27 ar
33 27 28 ar
34 28 29 ar
35 29 30 1
36 10 33 1
37 30 34 1
38 30 35 1
39 30 36 1
@<TRIPOS>SUBSTRUCTURE
1	RES1	1	GROUP	1 ****	RES
