# created with PyMOL 2.5.2
@<TRIPOS>MOLECULE
WDR5_4QL1_TargetProtein
36 39 1                 
SMALL
USER_CHARGES
@<TRIPOS>ATOM
1	  N5	-12.329	-25.445	3.620	N.pl3	1	RES1	0.000	
2	  N6	-11.631	-24.636	6.334	N.3	1	RES1	0.000	
3	  O6	-9.159	-26.308	0.727	O.2	1	RES1	0.000	
4	  N7	-10.949	-27.195	1.954	N.pl3	1	RES1	0.000	
5	  O7	-6.462	-30.619	4.413	O.2	1	RES1	0.000	
6	  N8	-8.262	-30.137	3.078	N.2	1	RES1	0.000	
7	 C20	-15.775	-26.221	-3.546	C.2	1	RES1	0.000	
8	 C21	-14.822	-26.502	-4.531	C.2	1	RES1	0.000	
9	 C22	-13.495	-26.637	-4.168	C.2	1	RES1	0.000	
10	 C23	-13.114	-26.470	-2.839	C.2	1	RES1	0.000	
11	 C24	-14.038	-26.196	-1.825	C.2	1	RES1	0.000	
12	 C25	-13.624	-25.993	-0.430	C.2	1	RES1	0.000	
13	 C26	-14.252	-25.110	0.426	C.2	1	RES1	0.000	
14	 C27	-13.836	-24.904	1.747	C.2	1	RES1	0.000	
15	 C28	-12.764	-25.651	2.276	C.2	1	RES1	0.000	
16	 C29	-13.394	-25.014	4.548	C.3	1	RES1	0.000	
17	 C30	-12.948	-25.281	6.014	C.3	1	RES1	0.000	
18	 C31	-14.078	-24.771	6.922	C.3	1	RES1	0.000	
19	 C32	-11.227	-24.885	7.713	C.3	1	RES1	0.000	
20	 C33	-10.577	-25.129	5.340	C.3	1	RES1	0.000	
21	 C34	-9.226	-24.473	5.573	C.3	1	RES1	0.000	
22	 C35	-11.017	-24.868	3.899	C.3	1	RES1	0.000	
23	 C36	-12.080	-26.543	1.408	C.2	1	RES1	0.000	
24	 C37	-9.631	-27.030	1.583	C.2	1	RES1	0.000	
25	 C38	-8.693	-27.914	2.378	C.2	1	RES1	0.000	
26	 C39	-9.043	-29.223	2.370	C.2	1	RES1	0.000	
27	 C40	-7.151	-29.819	3.788	C.2	1	RES1	0.000	
28	 C41	-6.749	-28.378	3.759	C.2	1	RES1	0.000	
29	 C42	-7.498	-27.458	3.083	C.2	1	RES1	0.000	
30	 C43	-7.083	-26.014	3.022	C.3	1	RES1	0.000	
31	 C44	-12.517	-26.703	0.101	C.2	1	RES1	0.000	
32	 C45	-15.381	-26.062	-2.215	C.2	1	RES1	0.000	
33	  F1	-11.818	-26.631	-2.557	 F	1	RES1	0.000	
34	  F2	-6.524	-25.673	1.808	 F	1	RES1	0.000	
35	  F3	-6.171	-25.719	3.983	 F	1	RES1	0.000	
36	  F4	-8.140	-25.169	3.202	 F	1	RES1	0.000	
@<TRIPOS>BOND
1 7 8 ar
2 7 32 ar
3 8 9 ar
4 9 10 ar
5 10 11 ar
6 11 12 1
7 11 32 ar
8 12 13 ar
9 12 31 ar
10 13 14 ar
11 14 15 ar
12 1 15 1
13 15 23 ar
14 1 16 1
15 16 17 1
16 2 17 1
17 17 18 1
18 2 19 1
19 2 20 1
20 20 21 1
21 20 22 1
22 1 22 1
23 4 23 1
24 23 31 ar
25 3 24 2
26 4 24 1
27 24 25 1
28 25 26 ar
29 25 29 ar
30 6 26 ar
31 5 27 2
32 6 27 ar
33 27 28 ar
34 28 29 ar
35 29 30 1
36 10 33 1
37 30 34 1
38 30 35 1
39 30 36 1
@<TRIPOS>SUBSTRUCTURE
1	RES1	1	GROUP	1 ****	RES
