# created with PyMOL 2.5.2
@<TRIPOS>MOLECULE
CDK6_2EUF_TargetProtein
33 37 1                 
SMALL
USER_CHARGES
@<TRIPOS>ATOM
1	  C1	34.651	27.676	59.492	C.3	1	RES1	0.000	
2	  N1	31.397	22.959	63.547	N.2	1	RES1	0.000	
3	  O1	32.603	28.734	60.116	O.2	1	RES1	0.000	
4	  C2	33.233	27.685	59.998	C.2	1	RES1	0.000	
5	  N2	30.256	21.002	62.749	N.pl3	1	RES1	0.000	
6	  C3	32.646	26.384	60.357	C.2	1	RES1	0.000	
7	  N3	27.821	16.885	59.714	N.pl3	1	RES1	0.000	
8	  C4	32.663	25.961	61.643	C.2	1	RES1	0.000	
9	  N4	26.760	14.767	58.038	N.3	1	RES1	0.000	
10	  C5	33.321	26.711	62.780	C.3	1	RES1	0.000	
11	  C6	32.013	24.670	61.967	C.2	1	RES1	0.000	
12	  C7	31.970	24.119	63.266	C.2	1	RES1	0.000	
13	  O7	32.045	25.992	58.143	O.2	1	RES1	0.000	
14	  C8	30.850	22.254	62.536	C.2	1	RES1	0.000	
15	  C9	29.678	20.032	61.924	C.2	1	RES1	0.000	
16	  N9	29.447	18.829	62.494	N.2	1	RES1	0.000	
17	 C10	29.301	20.259	60.602	C.2	1	RES1	0.000	
18	 N10	30.873	22.676	61.281	N.2	1	RES1	0.000	
19	 C11	28.691	19.216	59.861	C.2	1	RES1	0.000	
20	 N11	31.431	24.321	59.640	N.2	1	RES1	0.000	
21	 C12	28.442	17.965	60.440	C.2	1	RES1	0.000	
22	 C13	28.538	15.597	59.592	C.3	1	RES1	0.000	
23	 C14	27.605	14.460	59.204	C.3	1	RES1	0.000	
24	 C33	25.984	15.964	58.342	C.3	1	RES1	0.000	
25	 C34	26.835	17.190	58.676	C.3	1	RES1	0.000	
26	 C35	28.851	17.848	61.755	C.2	1	RES1	0.000	
27	 C36	31.453	23.878	60.971	C.2	1	RES1	0.000	
28	 C37	30.849	23.499	58.567	C.3	1	RES1	0.000	
29	 C38	29.926	24.264	57.598	C.3	1	RES1	0.000	
30	 C39	28.644	23.417	57.498	C.3	1	RES1	0.000	
31	 C40	29.062	22.017	57.927	C.3	1	RES1	0.000	
32	 C41	30.051	22.275	59.035	C.3	1	RES1	0.000	
33	 C42	32.012	25.556	59.272	C.2	1	RES1	0.000	
@<TRIPOS>BOND
1 1 4 1
2 2 12 ar
3 2 14 ar
4 3 4 2
5 4 6 1
6 5 14 1
7 5 15 1
8 6 8 ar
9 6 33 ar
10 7 25 1
11 8 10 1
12 8 11 ar
13 11 12 ar
14 15 16 ar
15 15 17 ar
16 17 19 ar
17 14 18 ar
18 18 27 ar
19 19 21 ar
20 20 27 ar
21 20 28 1
22 20 33 ar
23 7 21 1
24 21 26 ar
25 7 22 1
26 22 23 1
27 9 23 1
28 9 24 1
29 24 25 1
30 16 26 ar
31 11 27 ar
32 28 29 1
33 28 32 1
34 29 30 1
35 30 31 1
36 31 32 1
37 13 33 2
@<TRIPOS>SUBSTRUCTURE
1	RES1	1	GROUP	1 ****	RES
