# created with PyMOL 2.5.2
@<TRIPOS>MOLECULE
CDK6_2EUF_TargetProtein
33 37 1                 
SMALL
USER_CHARGES
@<TRIPOS>ATOM
1	  C1	34.379	27.544	59.267	C.3	1	RES1	0.000	
2	  N1	31.656	22.792	63.643	N.2	1	RES1	0.000	
3	  O1	32.439	28.630	60.152	O.2	1	RES1	0.000	
4	  C2	33.054	27.577	59.948	C.2	1	RES1	0.000	
5	  N2	30.328	20.882	62.966	N.pl3	1	RES1	0.000	
6	  C3	32.471	26.289	60.393	C.2	1	RES1	0.000	
7	  N3	27.739	16.920	59.865	N.pl3	1	RES1	0.000	
8	  C4	32.647	25.853	61.660	C.2	1	RES1	0.000	
9	  N4	26.711	14.833	58.102	N.3	1	RES1	0.000	
10	  C5	33.392	26.615	62.725	C.3	1	RES1	0.000	
11	  C6	32.059	24.528	62.025	C.2	1	RES1	0.000	
12	  C7	32.153	23.984	63.307	C.2	1	RES1	0.000	
13	  C8	30.935	22.122	62.726	C.2	1	RES1	0.000	
14	  O8	31.531	25.961	58.252	O.2	1	RES1	0.000	
15	  C9	29.688	19.953	62.117	C.2	1	RES1	0.000	
16	 C10	29.256	20.237	60.822	C.2	1	RES1	0.000	
17	 C11	28.609	19.238	60.088	C.2	1	RES1	0.000	
18	 N11	29.487	18.740	62.643	N.2	1	RES1	0.000	
19	 C12	28.357	17.978	60.597	C.2	1	RES1	0.000	
20	 N12	30.775	22.587	61.472	N.2	1	RES1	0.000	
21	 C13	28.453	15.620	59.700	C.3	1	RES1	0.000	
22	 N13	31.143	24.249	59.786	N.2	1	RES1	0.000	
23	 C14	27.523	14.515	59.269	C.3	1	RES1	0.000	
24	 C37	25.894	16.027	58.425	C.3	1	RES1	0.000	
25	 C38	26.739	17.252	58.791	C.3	1	RES1	0.000	
26	 C39	28.882	17.800	61.895	C.2	1	RES1	0.000	
27	 C40	31.318	23.771	61.122	C.2	1	RES1	0.000	
28	 C41	30.356	23.438	58.833	C.3	1	RES1	0.000	
29	 C42	31.177	22.725	57.758	C.3	1	RES1	0.000	
30	 C43	30.605	23.138	56.434	C.3	1	RES1	0.000	
31	 C44	29.162	23.519	56.767	C.3	1	RES1	0.000	
32	 C45	29.290	24.251	58.081	C.3	1	RES1	0.000	
33	 C46	31.691	25.497	59.395	C.2	1	RES1	0.000	
@<TRIPOS>BOND
1 1 4 1
2 2 12 ar
3 2 13 ar
4 3 4 2
5 4 6 1
6 5 13 1
7 5 15 1
8 6 8 ar
9 6 33 ar
10 7 25 1
11 8 10 1
12 8 11 ar
13 11 12 ar
14 15 16 ar
15 16 17 ar
16 17 19 ar
17 15 18 ar
18 18 26 ar
19 7 19 1
20 19 26 ar
21 13 20 ar
22 20 27 ar
23 7 21 1
24 21 23 1
25 22 27 ar
26 22 28 1
27 22 33 ar
28 9 23 1
29 9 24 1
30 24 25 1
31 11 27 ar
32 28 29 1
33 28 32 1
34 29 30 1
35 30 31 1
36 31 32 1
37 14 33 2
@<TRIPOS>SUBSTRUCTURE
1	RES1	1	GROUP	1 ****	RES
