# created with PyMOL 2.5.2
@<TRIPOS>MOLECULE
CDK6_2EUF_TargetProtein
33 37 1                 
SMALL
USER_CHARGES
@<TRIPOS>ATOM
1	  C1	34.586	27.681	59.398	C.3	1	RES1	0.000	
2	  N1	31.411	22.968	63.589	N.2	1	RES1	0.000	
3	  O1	32.548	28.695	60.058	O.2	1	RES1	0.000	
4	  C2	33.204	27.659	59.938	C.2	1	RES1	0.000	
5	  N2	30.290	20.991	62.834	N.pl3	1	RES1	0.000	
6	  C3	32.595	26.339	60.342	C.2	1	RES1	0.000	
7	  N3	27.852	16.972	59.665	N.pl3	1	RES1	0.000	
8	  C4	32.648	25.946	61.634	C.2	1	RES1	0.000	
9	  N4	26.774	14.917	57.925	N.3	1	RES1	0.000	
10	  C5	33.295	26.737	62.727	C.3	1	RES1	0.000	
11	  C6	32.034	24.662	61.985	C.2	1	RES1	0.000	
12	  C7	31.975	24.155	63.263	C.2	1	RES1	0.000	
13	  C8	30.882	22.240	62.624	C.2	1	RES1	0.000	
14	  C9	29.708	20.042	61.976	C.2	1	RES1	0.000	
15	  O9	31.995	25.927	58.126	O.2	1	RES1	0.000	
16	 C10	29.329	20.291	60.658	C.2	1	RES1	0.000	
17	 C11	28.760	19.305	59.916	C.2	1	RES1	0.000	
18	 N11	29.463	18.829	62.529	N.2	1	RES1	0.000	
19	 C12	28.469	18.022	60.412	C.2	1	RES1	0.000	
20	 N12	30.872	22.649	61.337	N.2	1	RES1	0.000	
21	 C13	28.556	15.704	59.534	C.3	1	RES1	0.000	
22	 N13	31.401	24.286	59.676	N.2	1	RES1	0.000	
23	 C14	27.606	14.555	59.100	C.3	1	RES1	0.000	
24	 C39	25.969	16.114	58.250	C.3	1	RES1	0.000	
25	 C40	26.867	17.330	58.632	C.3	1	RES1	0.000	
26	 C41	28.879	17.879	61.766	C.2	1	RES1	0.000	
27	 C42	31.434	23.837	61.012	C.2	1	RES1	0.000	
28	 C43	30.823	23.410	58.607	C.3	1	RES1	0.000	
29	 C44	29.865	24.127	57.608	C.3	1	RES1	0.000	
30	 C45	28.642	23.269	57.561	C.3	1	RES1	0.000	
31	 C46	29.083	21.881	57.980	C.3	1	RES1	0.000	
32	 C47	30.108	22.143	59.079	C.3	1	RES1	0.000	
33	 C48	31.976	25.502	59.284	C.2	1	RES1	0.000	
@<TRIPOS>BOND
1 1 4 1
2 2 12 ar
3 2 13 ar
4 3 4 2
5 4 6 1
6 5 13 1
7 5 14 1
8 6 8 ar
9 6 33 ar
10 7 25 1
11 8 10 1
12 8 11 ar
13 11 12 ar
14 14 16 ar
15 16 17 ar
16 17 19 ar
17 14 18 ar
18 18 26 ar
19 7 19 1
20 19 26 ar
21 13 20 ar
22 20 27 ar
23 7 21 1
24 21 23 1
25 22 27 ar
26 22 28 1
27 22 33 ar
28 9 23 1
29 9 24 1
30 24 25 1
31 11 27 ar
32 28 29 1
33 28 32 1
34 29 30 1
35 30 31 1
36 31 32 1
37 15 33 2
@<TRIPOS>SUBSTRUCTURE
1	RES1	1	GROUP	1 ****	RES
