# created with PyMOL 2.5.2
@<TRIPOS>MOLECULE
CDK6_2EUF_TargetProtein
33 37 1                 
SMALL
USER_CHARGES
@<TRIPOS>ATOM
1	  C1	34.681	27.581	59.416	C.3	1	RES1	0.000	
2	  N1	31.476	22.925	63.581	N.2	1	RES1	0.000	
3	  O1	32.658	28.706	60.031	O.2	1	RES1	0.000	
4	  C2	33.261	27.642	59.937	C.2	1	RES1	0.000	
5	  N2	30.307	20.987	62.795	N.pl3	1	RES1	0.000	
6	  C3	32.628	26.369	60.329	C.2	1	RES1	0.000	
7	  N3	27.822	16.947	59.739	N.pl3	1	RES1	0.000	
8	  C4	32.640	25.972	61.611	C.2	1	RES1	0.000	
9	  N4	26.923	14.842	57.907	N.3	1	RES1	0.000	
10	  C5	33.209	26.791	62.758	C.3	1	RES1	0.000	
11	  C6	32.040	24.669	61.966	C.2	1	RES1	0.000	
12	  C7	32.027	24.126	63.261	C.2	1	RES1	0.000	
13	  C8	30.903	22.216	62.567	C.2	1	RES1	0.000	
14	  C9	29.655	20.040	61.971	C.2	1	RES1	0.000	
15	 C10	29.139	20.327	60.689	C.2	1	RES1	0.000	
16	 O10	32.055	25.888	58.088	O.2	1	RES1	0.000	
17	 C11	28.517	19.315	59.969	C.2	1	RES1	0.000	
18	 N11	29.565	18.796	62.478	N.2	1	RES1	0.000	
19	 C12	28.408	18.016	60.491	C.2	1	RES1	0.000	
20	 N12	30.881	22.680	61.303	N.2	1	RES1	0.000	
21	 C13	27.176	17.266	58.423	C.3	1	RES1	0.000	
22	 N13	31.383	24.305	59.630	N.2	1	RES1	0.000	
23	 C14	26.261	16.138	57.953	C.3	1	RES1	0.000	
24	 C41	27.425	14.506	59.269	C.3	1	RES1	0.000	
25	 C42	28.366	15.564	59.804	C.3	1	RES1	0.000	
26	 C43	28.962	17.845	61.759	C.2	1	RES1	0.000	
27	 C44	31.438	23.847	60.983	C.2	1	RES1	0.000	
28	 C45	30.754	23.477	58.591	C.3	1	RES1	0.000	
29	 C46	29.812	24.187	57.637	C.3	1	RES1	0.000	
30	 C47	28.537	23.380	57.642	C.3	1	RES1	0.000	
31	 C48	28.958	21.992	58.044	C.3	1	RES1	0.000	
32	 C49	30.001	22.231	59.126	C.3	1	RES1	0.000	
33	 C50	32.032	25.493	59.277	C.2	1	RES1	0.000	
@<TRIPOS>BOND
1 1 4 1
2 2 12 ar
3 2 13 ar
4 3 4 2
5 4 6 1
6 5 13 1
7 5 14 1
8 6 8 ar
9 6 33 ar
10 7 25 1
11 8 10 1
12 8 11 ar
13 9 24 1
14 11 12 ar
15 14 15 ar
16 15 17 ar
17 16 33 2
18 17 19 ar
19 14 18 ar
20 18 26 ar
21 7 19 1
22 19 26 ar
23 13 20 ar
24 20 27 ar
25 7 21 1
26 21 23 1
27 22 27 ar
28 22 28 1
29 22 33 ar
30 9 23 1
31 24 25 1
32 11 27 ar
33 28 29 1
34 28 32 1
35 29 30 1
36 30 31 1
37 31 32 1
@<TRIPOS>SUBSTRUCTURE
1	RES1	1	GROUP	1 ****	RES
