# created with PyMOL 2.5.2
@<TRIPOS>MOLECULE
CDK6_2EUF_TargetProtein
33 37 1                 
SMALL
USER_CHARGES
@<TRIPOS>ATOM
1	  C1	34.631	27.698	59.468	C.3	1	RES1	0.000	
2	  N1	31.394	22.942	63.543	N.2	1	RES1	0.000	
3	  O1	32.555	28.735	60.098	O.2	1	RES1	0.000	
4	  C2	33.219	27.688	59.993	C.2	1	RES1	0.000	
5	  N2	30.270	20.981	62.769	N.pl3	1	RES1	0.000	
6	  C3	32.613	26.377	60.353	C.2	1	RES1	0.000	
7	  N3	27.843	16.904	59.709	N.pl3	1	RES1	0.000	
8	  C4	32.652	25.968	61.630	C.2	1	RES1	0.000	
9	  N4	26.722	14.812	58.018	N.3	1	RES1	0.000	
10	  C5	33.285	26.743	62.792	C.3	1	RES1	0.000	
11	  C6	32.014	24.657	61.969	C.2	1	RES1	0.000	
12	  C7	31.931	24.134	63.268	C.2	1	RES1	0.000	
13	  C8	30.881	22.221	62.553	C.2	1	RES1	0.000	
14	  O8	32.041	25.970	58.132	O.2	1	RES1	0.000	
15	  C9	29.667	20.024	61.964	C.2	1	RES1	0.000	
16	  N9	29.461	18.835	62.506	N.2	1	RES1	0.000	
17	 C10	29.286	20.258	60.657	C.2	1	RES1	0.000	
18	 N10	30.879	22.643	61.279	N.2	1	RES1	0.000	
19	 C11	28.695	19.257	59.886	C.2	1	RES1	0.000	
20	 N11	31.466	24.318	59.654	N.2	1	RES1	0.000	
21	 C12	28.466	17.975	60.447	C.2	1	RES1	0.000	
22	 C13	28.559	15.624	59.545	C.3	1	RES1	0.000	
23	 C14	27.599	14.476	59.154	C.3	1	RES1	0.000	
24	 C34	25.948	15.994	58.349	C.3	1	RES1	0.000	
25	 C35	26.811	17.236	58.709	C.3	1	RES1	0.000	
26	 C36	28.895	17.836	61.770	C.2	1	RES1	0.000	
27	 C37	31.449	23.848	60.973	C.2	1	RES1	0.000	
28	 C38	30.871	23.473	58.555	C.3	1	RES1	0.000	
29	 C39	29.959	24.210	57.549	C.3	1	RES1	0.000	
30	 C40	28.672	23.427	57.488	C.3	1	RES1	0.000	
31	 C41	29.071	22.001	57.927	C.3	1	RES1	0.000	
32	 C42	30.059	22.269	59.027	C.3	1	RES1	0.000	
33	 C43	32.037	25.530	59.289	C.2	1	RES1	0.000	
@<TRIPOS>BOND
1 1 4 1
2 2 12 ar
3 2 13 ar
4 3 4 2
5 4 6 1
6 5 13 1
7 5 15 1
8 6 8 ar
9 6 33 ar
10 7 25 1
11 8 10 1
12 8 11 ar
13 11 12 ar
14 15 16 ar
15 15 17 ar
16 17 19 ar
17 13 18 ar
18 18 27 ar
19 19 21 ar
20 20 27 ar
21 20 28 1
22 20 33 ar
23 7 21 1
24 21 26 ar
25 7 22 1
26 22 23 1
27 9 23 1
28 9 24 1
29 24 25 1
30 16 26 ar
31 11 27 ar
32 28 29 1
33 28 32 1
34 29 30 1
35 30 31 1
36 31 32 1
37 14 33 2
@<TRIPOS>SUBSTRUCTURE
1	RES1	1	GROUP	1 ****	RES
