# created with PyMOL 2.5.2
@<TRIPOS>MOLECULE
BRD2_4ALH_TargetProtein
35 40 1                 
SMALL
USER_CHARGES
@<TRIPOS>ATOM
1	  C1	-2.381	8.883	26.619	C.3	1	RES1	0.000	
2	  N1	-1.789	8.292	24.277	N.2	1	RES1	0.000	
3	  O1	4.922	6.670	26.944	O.2	1	RES1	0.000	
4	  C2	-2.571	7.910	25.435	C.3	1	RES1	0.000	
5	  N2	-2.479	8.893	23.237	N.2	1	RES1	0.000	
6	  C3	-1.514	9.073	22.347	C.2	1	RES1	0.000	
7	  N3	0.358	7.589	25.012	N.pl3	1	RES1	0.000	
8	  C4	-1.798	9.708	20.972	C.3	1	RES1	0.000	
9	  N4	2.531	6.653	25.531	N.2	1	RES1	0.000	
10	  C5	-2.850	10.794	20.840	C.3	1	RES1	0.000	
11	  C6	-3.115	9.457	20.292	C.3	1	RES1	0.000	
12	  O6	-3.064	5.303	21.120	O.3	1	RES1	0.000	
13	  C7	-0.232	8.641	22.794	C.2	1	RES1	0.000	
14	  O7	-2.300	2.325	17.757	O.2	1	RES1	0.000	
15	  C8	-0.444	8.141	24.061	C.2	1	RES1	0.000	
16	  C9	1.406	6.603	24.790	C.2	1	RES1	0.000	
17	  N9	3.484	4.743	24.355	N.2	1	RES1	0.000	
18	 C10	3.515	5.740	25.273	C.2	1	RES1	0.000	
19	 N10	-3.381	1.989	18.526	N.2	1	RES1	0.000	
20	 C11	4.727	5.827	26.078	C.2	1	RES1	0.000	
21	 N11	2.036	3.828	22.690	N.2	1	RES1	0.000	
22	 C32	2.326	4.731	23.675	C.2	1	RES1	0.000	
23	 C33	1.259	5.587	23.826	C.2	1	RES1	0.000	
24	 C34	0.265	5.171	22.861	C.2	1	RES1	0.000	
25	 C35	-1.023	5.589	22.503	C.2	1	RES1	0.000	
26	 C36	-1.742	4.925	21.510	C.2	1	RES1	0.000	
27	 C37	-3.733	6.281	21.921	C.3	1	RES1	0.000	
28	 C38	-1.167	3.813	20.854	C.2	1	RES1	0.000	
29	 C39	-1.891	3.128	19.783	C.2	1	RES1	0.000	
30	 C40	-1.385	2.993	18.495	C.2	1	RES1	0.000	
31	 C41	-0.139	3.392	17.824	C.3	1	RES1	0.000	
32	 C42	-3.134	2.477	19.721	C.2	1	RES1	0.000	
33	 C43	-4.101	2.304	20.837	C.3	1	RES1	0.000	
34	 C44	0.124	3.380	21.208	C.2	1	RES1	0.000	
35	 C45	0.803	4.071	22.181	C.2	1	RES1	0.000	
@<TRIPOS>BOND
1 1 4 1
2 2 4 1
3 2 5 ar
4 2 15 ar
5 3 20 2
6 5 6 ar
7 6 8 1
8 6 13 ar
9 7 15 1
10 7 16 1
11 8 10 1
12 8 11 1
13 9 16 ar
14 10 11 1
15 13 15 ar
16 9 18 ar
17 17 18 ar
18 18 20 1
19 14 19 ar
20 19 32 ar
21 21 22 ar
22 21 35 ar
23 17 22 ar
24 22 23 ar
25 16 23 ar
26 23 24 ar
27 24 25 ar
28 24 35 ar
29 25 26 ar
30 12 26 1
31 26 28 ar
32 12 27 1
33 28 29 1
34 28 34 ar
35 29 30 ar
36 29 32 ar
37 14 30 ar
38 30 31 1
39 32 33 1
40 34 35 ar
@<TRIPOS>SUBSTRUCTURE
1	RES1	1	GROUP	1 ****	RES
