# created with PyMOL 2.5.2
@<TRIPOS>MOLECULE
BRD4_4F3I_TargetProtein
126 122 14              
SMALL
USER_CHARGES
@<TRIPOS>ATOM
1	   N	33.305	44.686	1.180	N.am	1	TRP81	0.000	
2	  CA	33.554	46.034	1.741	C.3	1	TRP81	0.000	
3	   C	32.282	46.901	1.950	C.2	1	TRP81	0.000	
4	   O	32.227	47.592	2.964	O.2	1	TRP81	0.000	
5	  CB	34.648	46.757	0.928	C.3	1	TRP81	0.000	
6	  CG	34.323	46.982	-0.487	C.2	1	TRP81	0.000	
7	 CD1	34.580	46.135	-1.561	C.2	1	TRP81	0.000	
8	 CD2	33.588	48.105	-1.046	C.2	1	TRP81	0.000	
9	 CE2	33.488	47.866	-2.455	C.2	1	TRP81	0.000	
10	 CE3	33.067	49.323	-0.525	C.2	1	TRP81	0.000	
11	 NE1	34.110	46.658	-2.741	N.pl3	1	TRP81	0.000	
12	 CZ2	32.878	48.781	-3.310	C.2	1	TRP81	0.000	
13	 CZ3	32.417	50.210	-1.405	C.2	1	TRP81	0.000	
14	 CH2	32.384	49.964	-2.755	C.2	1	TRP81	0.000	
15	   N	31.222	46.883	1.046	N.am	2	PRO82	0.000	
16	  CA	30.081	47.779	1.355	C.3	2	PRO82	0.000	
17	   C	29.356	47.357	2.632	C.2	2	PRO82	0.000	
18	   O	28.569	48.152	3.159	O.2	2	PRO82	0.000	
19	  CB	29.143	47.580	0.140	C.3	2	PRO82	0.000	
20	  CG	30.096	47.084	-1.001	C.3	2	PRO82	0.000	
21	  CD	31.016	46.183	-0.236	C.3	2	PRO82	0.000	
22	   N	29.534	46.087	3.036	N.am	3	PHE83	0.000	
23	  CA	28.801	45.465	4.106	C.3	3	PHE83	0.000	
24	   C	29.600	45.394	5.403	C.2	3	PHE83	0.000	
25	   O	29.110	44.865	6.384	O.2	3	PHE83	0.000	
26	  CB	28.335	44.033	3.697	C.3	3	PHE83	0.000	
27	  CG	27.574	44.031	2.429	C.2	3	PHE83	0.000	
28	 CD1	26.210	44.360	2.463	C.2	3	PHE83	0.000	
29	 CD2	28.200	43.771	1.183	C.2	3	PHE83	0.000	
30	 CE1	25.428	44.415	1.242	C.2	3	PHE83	0.000	
31	 CE2	27.432	43.818	-0.011	C.2	3	PHE83	0.000	
32	  CZ	26.005	44.152	0.015	C.2	3	PHE83	0.000	
33	   N	30.402	47.793	7.414	N.am	4	GLN85	0.000	
34	  CA	30.002	48.827	8.397	C.3	4	GLN85	0.000	
35	   C	28.613	49.310	8.016	C.2	4	GLN85	0.000	
36	   O	28.181	49.084	6.894	O.2	4	GLN85	0.000	
37	  CB	31.018	50.008	8.421	C.3	4	GLN85	0.000	
38	  CG	31.160	50.692	7.048	C.3	4	GLN85	0.000	
39	  CD	32.005	49.828	6.029	C.2	4	GLN85	0.000	
40	 NE2	31.420	49.641	4.848	N.pl3	4	GLN85	0.000	
41	 OE1	33.122	49.348	6.322	O.2	4	GLN85	0.000	
42	   N	25.529	51.440	6.597	N.am	5	VAL87	0.000	
43	  CA	25.361	52.331	5.446	C.3	5	VAL87	0.000	
44	   C	25.452	53.801	5.970	C.2	5	VAL87	0.000	
45	   O	24.670	54.212	6.807	O.2	5	VAL87	0.000	
46	  CB	24.028	52.086	4.740	C.3	5	VAL87	0.000	
47	 CG1	23.732	53.210	3.739	C.3	5	VAL87	0.000	
48	 CG2	24.074	50.726	4.104	C.3	5	VAL87	0.000	
49	   N	27.028	58.845	1.354	N.am	6	LEU92	0.000	
50	  CA	26.556	58.279	0.083	C.3	6	LEU92	0.000	
51	   C	25.384	59.062	-0.539	C.2	6	LEU92	0.000	
52	   O	24.990	58.709	-1.623	O.2	6	LEU92	0.000	
53	  CB	26.117	56.833	0.297	C.3	6	LEU92	0.000	
54	  CG	27.279	55.920	0.722	C.3	6	LEU92	0.000	
55	 CD1	26.752	54.523	1.049	C.3	6	LEU92	0.000	
56	 CD2	28.290	55.752	-0.315	C.3	6	LEU92	0.000	
57	   N	22.153	59.259	0.317	N.am	7	LEU94	0.000	
58	  CA	20.966	58.416	0.226	C.3	7	LEU94	0.000	
59	   C	19.962	58.815	1.323	C.2	7	LEU94	0.000	
60	   O	19.717	58.072	2.306	O.2	7	LEU94	0.000	
61	  CB	21.329	56.928	0.426	C.3	7	LEU94	0.000	
62	  CG	22.437	56.417	-0.515	C.3	7	LEU94	0.000	
63	 CD1	22.793	54.934	-0.026	C.3	7	LEU94	0.000	
64	 CD2	22.111	56.486	-1.994	C.3	7	LEU94	0.000	
65	   N	17.415	56.354	2.529	N.am	8	TYR97	0.000	
66	  CA	17.811	54.995	2.926	C.3	8	TYR97	0.000	
67	   C	17.077	54.567	4.233	C.2	8	TYR97	0.000	
68	   O	16.529	53.459	4.287	O.2	8	TYR97	0.000	
69	  CB	19.329	54.844	2.968	C.3	8	TYR97	0.000	
70	  CG	19.705	53.441	3.238	C.2	8	TYR97	0.000	
71	 CD1	19.893	52.533	2.179	C.2	8	TYR97	0.000	
72	 CD2	19.877	52.998	4.579	C.2	8	TYR97	0.000	
73	 CE1	20.237	51.208	2.447	C.2	8	TYR97	0.000	
74	 CE2	20.225	51.661	4.811	C.2	8	TYR97	0.000	
75	  CZ	20.422	50.796	3.764	C.2	8	TYR97	0.000	
76	  OH	20.678	49.455	4.005	O.3	8	TYR97	0.000	
77	   N	19.461	45.094	1.428	N.am	9	CYS136	0.000	
78	  CA	20.092	45.442	0.205	C.3	9	CYS136	0.000	
79	   C	19.153	45.228	-1.009	C.2	9	CYS136	0.000	
80	   O	19.074	46.078	-1.898	O.2	9	CYS136	0.000	
81	  CB	21.360	44.625	0.059	C.3	9	CYS136	0.000	
82	  SG	22.379	45.088	-1.386	S.3	9	CYS136	0.000	
83	   N	16.266	47.916	-0.921	N.am	10	TYR139	0.000	
84	  CA	16.553	49.316	-1.271	C.3	10	TYR139	0.000	
85	   C	16.947	49.456	-2.776	C.2	10	TYR139	0.000	
86	   O	16.574	50.432	-3.413	O.2	10	TYR139	0.000	
87	  CB	17.745	49.817	-0.383	C.3	10	TYR139	0.000	
88	  CG	18.013	51.290	-0.666	C.2	10	TYR139	0.000	
89	 CD1	17.125	52.267	-0.202	C.2	10	TYR139	0.000	
90	 CD2	19.085	51.667	-1.446	C.2	10	TYR139	0.000	
91	 CE1	17.309	53.635	-0.458	C.2	10	TYR139	0.000	
92	 CE2	19.294	52.997	-1.750	C.2	10	TYR139	0.000	
93	  CZ	18.402	53.986	-1.265	C.2	10	TYR139	0.000	
94	  OH	18.655	55.321	-1.606	O.3	10	TYR139	0.000	
95	   N	17.684	48.477	-3.302	N.am	11	ASN140	0.000	
96	  CA	18.317	48.592	-4.623	C.3	11	ASN140	0.000	
97	   C	17.481	47.904	-5.710	C.2	11	ASN140	0.000	
98	   O	16.375	47.450	-5.489	O.2	11	ASN140	0.000	
99	  CB	19.782	48.080	-4.538	C.3	11	ASN140	0.000	
100	  CG	20.598	48.928	-3.593	C.2	11	ASN140	0.000	
101	 ND2	20.891	48.399	-2.380	N.pl3	11	ASN140	0.000	
102	 OD1	20.978	50.042	-3.942	O.2	11	ASN140	0.000	
103	   N	25.020	46.610	-9.265	N.am	12	ASP145	0.000	
104	  CA	26.255	46.039	-8.716	C.3	12	ASP145	0.000	
105	   C	26.099	45.607	-7.275	C.2	12	ASP145	0.000	
106	   O	26.603	44.533	-6.881	O.2	12	ASP145	0.000	
107	  CB	27.454	47.023	-8.758	C.3	12	ASP145	0.000	
108	  CG	28.030	47.185	-10.141	C.2	12	ASP145	0.000	
109	 OD1	27.880	46.297	-11.011	O.co2	12	ASP145	0.000	
110	 OD2	28.681	48.268	-10.338	O.co2	12	ASP145	0.000	
111	   N	25.594	46.504	-6.426	N.am	13	ILE146	0.000	
112	  CA	25.542	46.184	-4.992	C.3	13	ILE146	0.000	
113	   C	24.692	44.916	-4.762	C.2	13	ILE146	0.000	
114	   O	24.955	44.153	-3.833	O.2	13	ILE146	0.000	
115	  CB	25.038	47.399	-4.167	C.3	13	ILE146	0.000	
116	 CG1	25.111	47.150	-2.633	C.3	13	ILE146	0.000	
117	 CG2	23.607	47.765	-4.539	C.3	13	ILE146	0.000	
118	 CD1	26.533	46.865	-2.210	C.3	13	ILE146	0.000	
119	   N	26.730	41.967	-5.570	N.am	14	MET149	0.000	
120	  CA	27.664	41.762	-4.468	C.3	14	MET149	0.000	
121	   C	26.988	40.995	-3.342	C.2	14	MET149	0.000	
122	   O	27.520	40.009	-2.835	O.2	14	MET149	0.000	
123	  CB	28.256	43.107	-3.990	C.3	14	MET149	0.000	
124	  CG	29.089	43.733	-5.098	C.3	14	MET149	0.000	
125	  SD	29.526	45.458	-4.749	S.3	14	MET149	0.000	
126	  CE	30.999	45.173	-3.871	C.3	14	MET149	0.000	
@<TRIPOS>BOND
1 1 2 1
2 2 3 1
3 2 5 1
4 3 4 2
5 3 15 1
6 5 6 1
7 6 7 2
8 6 8 1
9 7 11 1
10 8 9 2
11 8 10 1
12 9 12 1
13 10 13 2
14 9 11 1
15 12 14 2
16 13 14 1
17 15 16 1
18 15 21 1
19 16 17 1
20 16 19 1
21 17 18 2
22 17 22 1
23 19 20 1
24 20 21 1
25 22 23 1
26 23 24 1
27 23 26 1
28 24 25 2
29 26 27 1
30 27 28 2
31 27 29 1
32 28 30 1
33 29 31 2
34 30 32 2
35 31 32 1
36 33 34 1
37 34 35 1
38 34 37 1
39 35 36 2
40 37 38 1
41 38 39 1
42 39 40 1
43 39 41 2
44 42 43 1
45 43 44 1
46 43 46 1
47 44 45 2
48 46 47 1
49 46 48 1
50 49 50 1
51 50 51 1
52 50 53 1
53 51 52 2
54 53 54 1
55 54 55 1
56 54 56 1
57 57 58 1
58 58 59 1
59 58 61 1
60 59 60 2
61 61 62 1
62 62 63 1
63 62 64 1
64 65 66 1
65 66 67 1
66 66 69 1
67 67 68 2
68 69 70 1
69 70 71 2
70 70 72 1
71 71 73 1
72 72 74 2
73 73 75 2
74 74 75 1
75 75 76 1
76 77 78 1
77 78 79 1
78 78 81 1
79 79 80 2
80 81 82 1
81 83 84 1
82 84 85 1
83 84 87 1
84 85 86 2
85 85 95 1
86 87 88 1
87 88 89 2
88 88 90 1
89 89 91 1
90 90 92 2
91 91 93 2
92 92 93 1
93 93 94 1
94 95 96 1
95 96 97 1
96 96 99 1
97 97 98 2
98 99 100 1
99 100 101 1
100 100 102 2
101 103 104 1
102 104 105 1
103 104 107 1
104 105 106 2
105 105 111 1
106 107 108 1
107 108 109 2
108 108 110 1
109 111 112 1
110 112 113 1
111 112 115 1
112 113 114 2
113 115 116 1
114 115 117 1
115 116 118 1
116 119 120 1
117 120 121 1
118 120 123 1
119 121 122 2
120 123 124 1
121 124 125 1
122 125 126 1
@<TRIPOS>SUBSTRUCTURE
1	TRP81	1	RESIDUE	1 B	TRP
2	PRO82	15	RESIDUE	1 B	PRO
3	PHE83	22	RESIDUE	1 B	PHE
4	GLN85	33	RESIDUE	1 B	GLN
5	VAL87	42	RESIDUE	1 B	VAL
6	LEU92	49	RESIDUE	1 B	LEU
7	LEU94	57	RESIDUE	1 B	LEU
8	TYR97	65	RESIDUE	1 B	TYR
9	CYS136	77	RESIDUE	1 B	CYS
10	TYR139	83	RESIDUE	1 B	TYR
11	ASN140	95	RESIDUE	1 B	ASN
12	ASP145	103	RESIDUE	1 B	ASP
13	ILE146	111	RESIDUE	1 B	ILE
14	MET149	119	RESIDUE	1 B	MET
