# created with PyMOL 2.5.2
@<TRIPOS>MOLECULE
CDK2_2VU3_TargetProtein
149 142 18              
SMALL
USER_CHARGES
@<TRIPOS>ATOM
1	   N	25.697	12.627	68.714	N.am	1	ILE10	0.000	
2	  CA	26.795	12.327	67.804	C.3	1	ILE10	0.000	
3	   C	26.678	13.243	66.605	C.2	1	ILE10	0.000	
4	   O	27.687	13.696	66.060	O.2	1	ILE10	0.000	
5	  CB	26.716	10.876	67.308	C.3	1	ILE10	0.000	
6	 CG1	27.360	9.903	68.295	C.3	1	ILE10	0.000	
7	 CG2	27.359	10.761	65.930	C.3	1	ILE10	0.000	
8	 CD1	27.063	8.444	67.924	C.3	1	ILE10	0.000	
9	   N	21.344	11.418	65.725	N.am	2	VAL18	0.000	
10	  CA	22.077	10.224	66.173	C.3	2	VAL18	0.000	
11	   C	22.700	10.482	67.537	C.2	2	VAL18	0.000	
12	   O	23.371	11.493	67.719	O.2	2	VAL18	0.000	
13	  CB	23.160	9.777	65.138	C.3	2	VAL18	0.000	
14	 CG1	23.862	8.486	65.625	C.3	2	VAL18	0.000	
15	 CG2	22.524	9.563	63.781	C.3	2	VAL18	0.000	
16	   N	24.855	3.301	69.109	N.am	3	ALA31	0.000	
17	  CA	24.431	4.529	68.434	C.3	3	ALA31	0.000	
18	   C	22.930	4.361	68.224	C.2	3	ALA31	0.000	
19	   O	22.475	3.347	67.691	O.2	3	ALA31	0.000	
20	  CB	25.135	4.668	67.072	C.3	3	ALA31	0.000	
21	   N	19.526	6.050	66.535	N.am	4	LYS33	0.000	
22	  CA	19.030	7.046	65.590	C.3	4	LYS33	0.000	
23	   C	17.539	7.315	65.830	C.2	4	LYS33	0.000	
24	   O	16.728	6.407	65.885	O.2	4	LYS33	0.000	
25	  CB	19.270	6.599	64.151	C.3	4	LYS33	0.000	
26	  CG	18.713	7.539	63.086	C.3	4	LYS33	0.000	
27	  CD	18.930	6.915	61.723	C.3	4	LYS33	0.000	
28	  CE	18.703	7.911	60.620	C.3	4	LYS33	0.000	
29	  NZ	18.787	7.264	59.285	N.4	4	LYS33	0.000	
30	   N	27.230	-2.068	59.346	N.am	5	VAL64	0.000	
31	  CA	27.013	-1.717	60.741	C.3	5	VAL64	0.000	
32	   C	25.805	-2.510	61.271	C.2	5	VAL64	0.000	
33	   O	24.711	-2.483	60.694	O.2	5	VAL64	0.000	
34	  CB	26.896	-0.162	60.995	C.3	5	VAL64	0.000	
35	 CG1	25.579	0.406	60.402	C.3	5	VAL64	0.000	
36	 CG2	26.986	0.146	62.500	C.3	5	VAL64	0.000	
37	   N	22.029	0.827	66.658	N.am	6	PHE80	0.000	
38	  CA	23.191	0.232	65.980	C.3	6	PHE80	0.000	
39	   C	24.361	-0.110	66.906	C.2	6	PHE80	0.000	
40	   O	24.560	0.515	67.942	O.2	6	PHE80	0.000	
41	  CB	23.710	1.154	64.847	C.3	6	PHE80	0.000	
42	  CG	22.689	1.448	63.802	C.2	6	PHE80	0.000	
43	 CD1	22.448	0.547	62.788	C.2	6	PHE80	0.000	
44	 CD2	21.941	2.630	63.849	C.2	6	PHE80	0.000	
45	 CE1	21.470	0.803	61.803	C.2	6	PHE80	0.000	
46	 CE2	20.947	2.887	62.891	C.2	6	PHE80	0.000	
47	  CZ	20.776	1.998	61.821	C.2	6	PHE80	0.000	
48	   N	25.200	-1.041	66.463	N.am	7	GLU81	0.000	
49	  CA	26.505	-1.184	67.097	C.3	7	GLU81	0.000	
50	   C	27.246	0.158	66.970	C.2	7	GLU81	0.000	
51	   O	27.138	0.875	65.970	O.2	7	GLU81	0.000	
52	  CB	27.294	-2.351	66.487	C.3	7	GLU81	0.000	
53	  CG	28.002	-1.983	65.256	C.3	7	GLU81	0.000	
54	  CD	28.839	-3.091	64.662	C.2	7	GLU81	0.000	
55	 OE1	29.915	-3.406	65.206	O.co2	7	GLU81	0.000	
56	 OE2	28.573	-3.435	63.503	O.co2	7	GLU81	0.000	
57	   N	28.000	0.500	67.993	N.am	8	PHE82	0.000	
58	  CA	28.672	1.792	68.034	C.3	8	PHE82	0.000	
59	   C	30.077	1.610	67.467	C.2	8	PHE82	0.000	
60	   O	30.756	0.656	67.778	O.2	8	PHE82	0.000	
61	  CB	28.766	2.302	69.475	C.3	8	PHE82	0.000	
62	  CG	29.527	3.597	69.615	C.2	8	PHE82	0.000	
63	 CD1	30.881	3.595	69.941	C.2	8	PHE82	0.000	
64	 CD2	28.891	4.809	69.449	C.2	8	PHE82	0.000	
65	 CE1	31.564	4.806	70.058	C.2	8	PHE82	0.000	
66	 CE2	29.578	5.991	69.531	C.2	8	PHE82	0.000	
67	  CZ	30.892	5.997	69.885	C.2	8	PHE82	0.000	
68	   N	30.487	2.538	66.628	N.am	9	LEU83	0.000	
69	  CA	31.878	2.572	66.208	C.3	9	LEU83	0.000	
70	   C	32.409	3.956	66.492	C.2	9	LEU83	0.000	
71	   O	31.731	4.937	66.222	O.2	9	LEU83	0.000	
72	  CB	32.045	2.202	64.735	C.3	9	LEU83	0.000	
73	  CG	32.108	0.703	64.398	C.3	9	LEU83	0.000	
74	 CD1	30.672	0.203	64.223	C.3	9	LEU83	0.000	
75	 CD2	32.975	0.429	63.081	C.3	9	LEU83	0.000	
76	   N	33.686	4.022	66.847	N.am	10	HIS84	0.000	
77	  CA	34.313	5.247	67.302	C.3	10	HIS84	0.000	
78	   C	34.616	6.296	66.266	C.2	10	HIS84	0.000	
79	   O	34.606	7.485	66.542	O.2	10	HIS84	0.000	
80	  CB	35.563	4.905	68.136	C.3	10	HIS84	0.000	
81	  CG	35.226	4.223	69.423	C.2	10	HIS84	0.000	
82	 CD2	34.946	4.730	70.650	C.2	10	HIS84	0.000	
83	 ND1	35.053	2.856	69.523	N.pl3	10	HIS84	0.000	
84	 CE1	34.687	2.551	70.760	C.2	10	HIS84	0.000	
85	 NE2	34.637	3.666	71.467	N.pl3	10	HIS84	0.000	
86	   N	34.870	5.866	65.054	N.am	11	GLN85	0.000	
87	  CA	35.381	6.798	64.066	C.3	11	GLN85	0.000	
88	   C	34.710	6.587	62.714	C.2	11	GLN85	0.000	
89	   O	34.240	5.493	62.386	O.2	11	GLN85	0.000	
90	  CB	36.916	6.670	63.967	C.3	11	GLN85	0.000	
91	  CG	37.503	7.472	62.805	C.3	11	GLN85	0.000	
92	  CD	37.636	8.933	63.116	C.2	11	GLN85	0.000	
93	 NE2	38.857	9.478	62.989	N.pl3	11	GLN85	0.000	
94	 OE1	36.647	9.579	63.461	O.2	11	GLN85	0.000	
95	   N	34.643	7.654	61.936	N.am	12	ASP86	0.000	
96	  CA	34.198	7.540	60.536	C.3	12	ASP86	0.000	
97	   C	35.325	7.918	59.582	C.2	12	ASP86	0.000	
98	   O	36.358	8.466	60.005	O.2	12	ASP86	0.000	
99	  CB	32.920	8.342	60.262	C.3	12	ASP86	0.000	
100	  CG	33.140	9.878	60.321	C.2	12	ASP86	0.000	
101	 OD1	33.912	10.447	59.511	O.co2	12	ASP86	0.000	
102	 OD2	32.445	10.534	61.118	O.co2	12	ASP86	0.000	
103	   N	36.469	11.701	58.965	N.am	13	LYS89	0.000	
104	  CA	37.374	12.287	59.965	C.3	13	LYS89	0.000	
105	   C	38.799	11.707	59.918	C.2	13	LYS89	0.000	
106	   O	39.787	12.430	60.070	O.2	13	LYS89	0.000	
107	  CB	36.758	12.183	61.366	C.3	13	LYS89	0.000	
108	  CG	35.331	12.721	61.418	C.3	13	LYS89	0.000	
109	  CD	34.855	13.028	62.844	C.3	13	LYS89	0.000	
110	  CE	33.408	12.634	63.019	C.3	13	LYS89	0.000	
111	  NZ	32.622	12.894	61.784	N.4	13	LYS89	0.000	
112	   N	31.521	9.991	55.437	N.am	14	GLN131	0.000	
113	  CA	30.926	10.122	56.760	C.3	14	GLN131	0.000	
114	   C	29.968	8.976	57.121	C.2	14	GLN131	0.000	
115	   O	29.603	8.816	58.290	O.2	14	GLN131	0.000	
116	  CB	30.209	11.452	56.912	C.3	14	GLN131	0.000	
117	  CG	29.113	11.604	55.921	C.3	14	GLN131	0.000	
118	  CD	28.605	13.013	55.833	C.2	14	GLN131	0.000	
119	 NE2	27.486	13.274	56.493	N.pl3	14	GLN131	0.000	
120	 OE1	29.235	13.878	55.210	O.2	14	GLN131	0.000	
121	   N	29.511	8.212	56.137	N.am	15	ASN132	0.000	
122	  CA	28.678	7.006	56.311	C.3	15	ASN132	0.000	
123	   C	29.488	5.707	56.460	C.2	15	ASN132	0.000	
124	   O	28.896	4.632	56.479	O.2	15	ASN132	0.000	
125	  CB	27.751	6.807	55.100	C.3	15	ASN132	0.000	
126	  CG	26.610	7.794	55.049	C.2	15	ASN132	0.000	
127	 ND2	26.144	8.085	53.834	N.pl3	15	ASN132	0.000	
128	 OD1	26.116	8.260	56.089	O.2	15	ASN132	0.000	
129	   N	32.165	3.625	58.700	N.am	16	LEU134	0.000	
130	  CA	32.725	3.648	60.051	C.3	16	LEU134	0.000	
131	   C	33.825	2.665	60.186	C.2	16	LEU134	0.000	
132	   O	33.752	1.585	59.629	O.2	16	LEU134	0.000	
133	  CB	31.631	3.308	61.072	C.3	16	LEU134	0.000	
134	  CG	30.343	4.146	60.992	C.3	16	LEU134	0.000	
135	 CD1	29.193	3.357	61.719	C.3	16	LEU134	0.000	
136	 CD2	30.617	5.466	61.716	C.3	16	LEU134	0.000	
137	   N	27.226	2.188	56.652	N.am	17	ALA144	0.000	
138	  CA	26.195	2.637	57.605	C.3	17	ALA144	0.000	
139	   C	25.210	3.606	56.910	C.2	17	ALA144	0.000	
140	   O	25.483	4.083	55.813	O.2	17	ALA144	0.000	
141	  CB	26.832	3.320	58.772	C.3	17	ALA144	0.000	
142	   N	24.089	3.887	57.551	N.am	18	ASP145	0.000	
143	  CA	23.072	4.848	57.031	C.3	18	ASP145	0.000	
144	   C	22.510	4.471	55.668	C.2	18	ASP145	0.000	
145	   O	22.542	5.261	54.718	O.2	18	ASP145	0.000	
146	  CB	23.603	6.281	56.948	C.3	18	ASP145	0.000	
147	  CG	22.470	7.325	56.972	C.2	18	ASP145	0.000	
148	 OD1	21.403	7.038	57.550	O.co2	18	ASP145	0.000	
149	 OD2	22.709	8.471	56.561	O.co2	18	ASP145	0.000	
@<TRIPOS>BOND
1 1 2 1
2 2 3 1
3 2 5 1
4 3 4 2
5 5 6 1
6 5 7 1
7 6 8 1
8 9 10 1
9 10 11 1
10 10 13 1
11 11 12 2
12 13 14 1
13 13 15 1
14 16 17 1
15 17 18 1
16 17 20 1
17 18 19 2
18 21 22 1
19 22 23 1
20 22 25 1
21 23 24 2
22 25 26 1
23 26 27 1
24 27 28 1
25 28 29 1
26 30 31 1
27 31 32 1
28 31 34 1
29 32 33 2
30 34 35 1
31 34 36 1
32 37 38 1
33 38 39 1
34 38 41 1
35 39 40 2
36 39 48 1
37 41 42 1
38 42 43 2
39 42 44 1
40 43 45 1
41 44 46 2
42 45 47 2
43 46 47 1
44 48 49 1
45 49 50 1
46 49 52 1
47 50 51 2
48 50 57 1
49 52 53 1
50 53 54 1
51 54 55 2
52 54 56 1
53 57 58 1
54 58 59 1
55 58 61 1
56 59 60 2
57 59 68 1
58 61 62 1
59 62 63 2
60 62 64 1
61 63 65 1
62 64 66 2
63 65 67 2
64 66 67 1
65 68 69 1
66 69 70 1
67 69 72 1
68 70 71 2
69 70 76 1
70 72 73 1
71 73 74 1
72 73 75 1
73 76 77 1
74 77 78 1
75 77 80 1
76 78 79 2
77 78 86 1
78 80 81 1
79 81 82 2
80 81 83 1
81 82 85 1
82 83 84 2
83 84 85 1
84 86 87 1
85 87 88 1
86 87 90 1
87 88 89 2
88 88 95 1
89 90 91 1
90 91 92 1
91 92 93 1
92 92 94 2
93 95 96 1
94 96 97 1
95 96 99 1
96 97 98 2
97 99 100 1
98 100 101 2
99 100 102 1
100 103 104 1
101 104 105 1
102 104 107 1
103 105 106 2
104 107 108 1
105 108 109 1
106 109 110 1
107 110 111 1
108 112 113 1
109 113 114 1
110 113 116 1
111 114 115 2
112 114 121 1
113 116 117 1
114 117 118 1
115 118 119 1
116 118 120 2
117 121 122 1
118 122 123 1
119 122 125 1
120 123 124 2
121 125 126 1
122 126 127 1
123 126 128 2
124 129 130 1
125 130 131 1
126 130 133 1
127 131 132 2
128 133 134 1
129 134 135 1
130 134 136 1
131 137 138 1
132 138 139 1
133 138 141 1
134 139 140 2
135 139 142 1
136 142 143 1
137 143 144 1
138 143 146 1
139 144 145 2
140 146 147 1
141 147 148 2
142 147 149 1
@<TRIPOS>SUBSTRUCTURE
1	ILE10	1	RESIDUE	1 B	ILE
2	VAL18	9	RESIDUE	1 B	VAL
3	ALA31	16	RESIDUE	1 B	ALA
4	LYS33	21	RESIDUE	1 B	LYS
5	VAL64	30	RESIDUE	1 B	VAL
6	PHE80	37	RESIDUE	1 B	PHE
7	GLU81	48	RESIDUE	1 B	GLU
8	PHE82	57	RESIDUE	1 B	PHE
9	LEU83	68	RESIDUE	1 B	LEU
10	HIS84	76	RESIDUE	1 B	HIS
11	GLN85	86	RESIDUE	1 B	GLN
12	ASP86	95	RESIDUE	1 B	ASP
13	LYS89	103	RESIDUE	1 B	LYS
14	GLN131	112	RESIDUE	1 B	GLN
15	ASN132	121	RESIDUE	1 B	ASN
16	LEU134	129	RESIDUE	1 B	LEU
17	ALA144	137	RESIDUE	1 B	ALA
18	ASP145	142	RESIDUE	1 B	ASP
