# created with PyMOL 2.5.2
@<TRIPOS>MOLECULE
CDK2_2VTL_TargetProtein
152 143 19              
SMALL
USER_CHARGES
@<TRIPOS>ATOM
1	   N	26.422	12.405	69.005	N.am	1	ILE10	0.000	
2	  CA	27.598	12.189	68.191	C.3	1	ILE10	0.000	
3	   C	27.485	12.932	66.896	C.2	1	ILE10	0.000	
4	   O	28.496	13.300	66.302	O.2	1	ILE10	0.000	
5	  CB	27.991	10.701	67.971	C.3	1	ILE10	0.000	
6	 CG1	26.803	9.770	68.014	C.3	1	ILE10	0.000	
7	 CG2	29.015	10.240	69.004	C.3	1	ILE10	0.000	
8	 CD1	27.221	8.318	68.031	C.3	1	ILE10	0.000	
9	   N	22.250	13.078	61.579	N.am	2	GLY13	0.000	
10	  CA	22.098	12.362	60.327	C.3	2	GLY13	0.000	
11	   C	21.082	13.042	59.420	C.2	2	GLY13	0.000	
12	   O	20.548	14.116	59.728	O.2	2	GLY13	0.000	
13	   N	21.829	11.628	66.166	N.am	3	VAL18	0.000	
14	  CA	22.504	10.393	66.502	C.3	3	VAL18	0.000	
15	   C	23.129	10.525	67.880	C.2	3	VAL18	0.000	
16	   O	23.867	11.464	68.168	O.2	3	VAL18	0.000	
17	  CB	23.541	10.038	65.439	C.3	3	VAL18	0.000	
18	 CG1	24.214	8.689	65.755	C.3	3	VAL18	0.000	
19	 CG2	22.880	10.040	64.082	C.3	3	VAL18	0.000	
20	   N	24.879	2.976	69.152	N.am	4	ALA31	0.000	
21	  CA	24.483	4.238	68.523	C.3	4	ALA31	0.000	
22	   C	22.965	4.235	68.441	C.2	4	ALA31	0.000	
23	   O	22.373	3.259	67.965	O.2	4	ALA31	0.000	
24	  CB	25.103	4.354	67.129	C.3	4	ALA31	0.000	
25	   N	19.672	6.163	66.835	N.am	5	LYS33	0.000	
26	  CA	19.264	7.170	65.867	C.3	5	LYS33	0.000	
27	   C	17.779	7.441	65.994	C.2	5	LYS33	0.000	
28	   O	16.955	6.553	65.842	O.2	5	LYS33	0.000	
29	  CB	19.615	6.746	64.438	C.3	5	LYS33	0.000	
30	  CG	21.043	6.220	64.329	C.3	5	LYS33	0.000	
31	  CD	21.670	6.549	62.972	C.3	5	LYS33	0.000	
32	  CE	23.149	6.190	62.954	C.3	5	LYS33	0.000	
33	  NZ	23.763	6.560	61.647	N.4	5	LYS33	0.000	
34	   N	27.330	-1.971	59.405	N.am	6	VAL64	0.000	
35	  CA	27.090	-1.643	60.818	C.3	6	VAL64	0.000	
36	   C	25.834	-2.405	61.271	C.2	6	VAL64	0.000	
37	   O	24.773	-2.239	60.683	O.2	6	VAL64	0.000	
38	  CB	26.925	-0.097	61.035	C.3	6	VAL64	0.000	
39	 CG1	26.627	0.214	62.548	C.3	6	VAL64	0.000	
40	 CG2	28.199	0.653	60.543	C.3	6	VAL64	0.000	
41	   N	16.359	3.573	65.814	N.am	7	LEU78	0.000	
42	  CA	17.177	2.469	65.339	C.3	7	LEU78	0.000	
43	   C	18.363	2.348	66.257	C.2	7	LEU78	0.000	
44	   O	19.047	3.345	66.519	O.2	7	LEU78	0.000	
45	  CB	17.664	2.749	63.918	C.3	7	LEU78	0.000	
46	  CG	16.599	3.066	62.869	C.3	7	LEU78	0.000	
47	 CD1	17.218	3.156	61.484	C.3	7	LEU78	0.000	
48	 CD2	15.458	2.039	62.899	C.3	7	LEU78	0.000	
49	   N	22.022	0.769	66.690	N.am	8	PHE80	0.000	
50	  CA	23.141	0.211	65.905	C.3	8	PHE80	0.000	
51	   C	24.326	-0.119	66.814	C.2	8	PHE80	0.000	
52	   O	24.579	0.616	67.817	O.2	8	PHE80	0.000	
53	  CB	23.629	1.257	64.885	C.3	8	PHE80	0.000	
54	  CG	22.731	1.400	63.694	C.2	8	PHE80	0.000	
55	 CD1	22.716	0.421	62.696	C.2	8	PHE80	0.000	
56	 CD2	21.842	2.451	63.610	C.3	8	PHE80	0.000	
57	 CE1	21.828	0.509	61.638	C.2	8	PHE80	0.000	
58	 CE2	20.973	2.553	62.535	C.3	8	PHE80	0.000	
59	  CZ	20.982	1.599	61.539	C.2	8	PHE80	0.000	
60	   N	25.153	-1.077	66.382	N.am	9	GLU81	0.000	
61	  CA	26.491	-1.207	66.974	C.3	9	GLU81	0.000	
62	   C	27.274	0.105	66.846	C.2	9	GLU81	0.000	
63	   O	27.246	0.786	65.809	O.2	9	GLU81	0.000	
64	  CB	27.264	-2.324	66.288	C.3	9	GLU81	0.000	
65	  CG	27.955	-1.922	65.053	C.3	9	GLU81	0.000	
66	  CD	28.831	-3.032	64.476	C.2	9	GLU81	0.000	
67	 OE1	29.963	-3.281	64.938	O.co2	9	GLU81	0.000	
68	 OE2	28.462	-3.509	63.423	O.co2	9	GLU81	0.000	
69	   N	28.005	0.439	67.894	N.am	10	PHE82	0.000	
70	  CA	28.688	1.711	67.974	C.3	10	PHE82	0.000	
71	   C	30.074	1.547	67.375	C.2	10	PHE82	0.000	
72	   O	30.743	0.569	67.671	O.2	10	PHE82	0.000	
73	  CB	28.814	2.126	69.445	C.3	10	PHE82	0.000	
74	  CG	29.547	3.405	69.631	C.2	10	PHE82	0.000	
75	 CD1	30.907	3.399	69.949	C.2	10	PHE82	0.000	
76	 CD2	28.919	4.615	69.373	C.2	10	PHE82	0.000	
77	 CE1	31.603	4.606	70.100	C.2	10	PHE82	0.000	
78	 CE2	29.605	5.809	69.512	C.2	10	PHE82	0.000	
79	  CZ	30.954	5.809	69.852	C.2	10	PHE82	0.000	
80	   N	30.473	2.447	66.474	N.am	11	LEU83	0.000	
81	  CA	31.893	2.520	66.068	C.3	11	LEU83	0.000	
82	   C	32.387	3.932	66.378	C.2	11	LEU83	0.000	
83	   O	31.598	4.865	66.371	O.2	11	LEU83	0.000	
84	  CB	32.078	2.206	64.563	C.3	11	LEU83	0.000	
85	  CG	32.097	0.707	64.219	C.3	11	LEU83	0.000	
86	 CD1	30.650	0.228	64.036	C.3	11	LEU83	0.000	
87	 CD2	33.010	0.280	63.002	C.3	11	LEU83	0.000	
88	   N	33.670	4.061	66.699	N.am	12	HIS84	0.000	
89	  CA	34.198	5.260	67.343	C.3	12	HIS84	0.000	
90	   C	34.607	6.393	66.404	C.2	12	HIS84	0.000	
91	   O	34.764	7.517	66.851	O.2	12	HIS84	0.000	
92	  CB	35.396	4.930	68.239	C.3	12	HIS84	0.000	
93	  CG	35.043	4.199	69.497	C.2	12	HIS84	0.000	
94	 CD2	34.944	4.632	70.780	C.2	12	HIS84	0.000	
95	 ND1	34.887	2.821	69.541	N.pl3	12	HIS84	0.000	
96	 CE1	34.639	2.450	70.782	C.2	12	HIS84	0.000	
97	 NE2	34.666	3.529	71.555	N.pl3	12	HIS84	0.000	
98	   N	34.765	6.126	65.109	N.am	13	GLN85	0.000	
99	  CA	35.046	7.203	64.153	C.3	13	GLN85	0.000	
100	   C	34.463	6.926	62.790	C.2	13	GLN85	0.000	
101	   O	34.287	5.779	62.432	O.2	13	GLN85	0.000	
102	  CB	36.555	7.375	63.979	C.3	13	GLN85	0.000	
103	  CG	36.872	8.762	63.357	C.3	13	GLN85	0.000	
104	  CD	38.331	8.969	63.087	C.2	13	GLN85	0.000	
105	 NE2	38.728	10.218	62.898	N.pl3	13	GLN85	0.000	
106	 OE1	39.103	8.018	63.078	O.2	13	GLN85	0.000	
107	   N	34.262	7.975	61.997	N.am	14	ASP86	0.000	
108	  CA	33.883	7.832	60.586	C.3	14	ASP86	0.000	
109	   C	35.066	8.199	59.698	C.2	14	ASP86	0.000	
110	   O	36.086	8.732	60.169	O.2	14	ASP86	0.000	
111	  CB	32.637	8.677	60.244	C.3	14	ASP86	0.000	
112	  CG	32.911	10.191	60.278	C.2	14	ASP86	0.000	
113	 OD1	33.987	10.659	59.841	O.co2	14	ASP86	0.000	
114	 OD2	32.021	10.921	60.720	O.co2	14	ASP86	0.000	
115	   N	36.195	12.166	59.188	N.am	15	LYS89	0.000	
116	  CA	37.106	12.620	60.243	C.3	15	LYS89	0.000	
117	   C	38.522	12.072	60.132	C.2	15	LYS89	0.000	
118	   O	39.489	12.794	60.378	O.2	15	LYS89	0.000	
119	  CB	36.567	12.307	61.642	C.3	15	LYS89	0.000	
120	  CG	35.220	12.894	61.932	C.3	15	LYS89	0.000	
121	  CD	35.103	13.245	63.410	C.3	15	LYS89	0.000	
122	  CE	33.675	13.079	63.913	C.3	15	LYS89	0.000	
123	  NZ	32.666	13.254	62.834	N.4	15	LYS89	0.000	
124	   N	32.248	3.786	58.683	N.am	16	LEU134	0.000	
125	  CA	32.775	3.822	60.053	C.3	16	LEU134	0.000	
126	   C	33.933	2.859	60.279	C.2	16	LEU134	0.000	
127	   O	33.916	1.724	59.782	O.2	16	LEU134	0.000	
128	  CB	31.641	3.550	61.084	C.3	16	LEU134	0.000	
129	  CG	30.365	4.429	60.934	C.3	16	LEU134	0.000	
130	 CD1	29.277	4.053	61.942	C.3	16	LEU134	0.000	
131	 CD2	30.673	5.958	61.036	C.3	16	LEU134	0.000	
132	   N	27.381	2.264	57.270	N.am	17	ALA144	0.000	
133	  CA	26.222	2.629	58.122	C.3	17	ALA144	0.000	
134	   C	25.035	3.071	57.262	C.2	17	ALA144	0.000	
135	   O	25.247	3.629	56.203	O.2	17	ALA144	0.000	
136	  CB	26.622	3.767	59.093	C.3	17	ALA144	0.000	
137	   N	23.811	3.013	57.804	N.am	18	ASP145	0.000	
138	  CA	22.592	3.532	57.117	C.3	18	ASP145	0.000	
139	   C	22.223	2.832	55.825	C.2	18	ASP145	0.000	
140	   O	21.480	3.361	55.013	O.2	18	ASP145	0.000	
141	  CB	22.554	5.072	56.977	C.3	18	ASP145	0.000	
142	  CG	22.657	5.781	58.339	C.2	18	ASP145	0.000	
143	 OD1	22.508	5.106	59.381	O.co2	18	ASP145	0.000	
144	 OD2	22.954	6.999	58.391	O.co2	18	ASP145	0.000	
145	   N	18.284	2.466	54.462	N.am	19	LEU148	0.000	
146	  CA	17.432	3.532	54.999	C.3	19	LEU148	0.000	
147	   C	16.863	4.499	53.955	C.2	19	LEU148	0.000	
148	   O	15.811	5.100	54.157	O.2	19	LEU148	0.000	
149	  CB	18.156	4.333	56.088	C.3	19	LEU148	0.000	
150	  CG	18.246	3.782	57.514	C.3	19	LEU148	0.000	
151	 CD1	18.604	2.320	57.557	C.3	19	LEU148	0.000	
152	 CD2	19.207	4.612	58.334	C.3	19	LEU148	0.000	
@<TRIPOS>BOND
1 1 2 1
2 2 3 1
3 2 5 1
4 3 4 2
5 5 6 1
6 5 7 1
7 6 8 1
8 9 10 1
9 10 11 1
10 11 12 2
11 13 14 1
12 14 15 1
13 14 17 1
14 15 16 2
15 17 18 1
16 17 19 1
17 20 21 1
18 21 22 1
19 21 24 1
20 22 23 2
21 25 26 1
22 26 27 1
23 26 29 1
24 27 28 2
25 29 30 1
26 30 31 1
27 31 32 1
28 32 33 1
29 34 35 1
30 35 36 1
31 35 38 1
32 36 37 2
33 38 39 1
34 38 40 1
35 41 42 1
36 42 43 1
37 42 45 1
38 43 44 2
39 45 46 1
40 46 47 1
41 46 48 1
42 49 50 1
43 50 51 1
44 50 53 1
45 51 52 2
46 51 60 1
47 53 54 1
48 54 55 2
49 54 56 1
50 55 57 1
51 56 58 2
52 57 59 2
53 58 59 1
54 60 61 1
55 61 62 1
56 61 64 1
57 62 63 2
58 62 69 1
59 64 65 1
60 65 66 1
61 66 67 2
62 66 68 1
63 69 70 1
64 70 71 1
65 70 73 1
66 71 72 2
67 71 80 1
68 73 74 1
69 74 75 2
70 74 76 1
71 75 77 1
72 76 78 2
73 77 79 2
74 78 79 1
75 80 81 1
76 81 82 1
77 81 84 1
78 82 83 2
79 82 88 1
80 84 85 1
81 85 86 1
82 85 87 1
83 88 89 1
84 89 90 1
85 89 92 1
86 90 91 2
87 90 98 1
88 92 93 1
89 93 94 2
90 93 95 1
91 94 97 1
92 95 96 2
93 96 97 1
94 98 99 1
95 99 100 1
96 99 102 1
97 100 101 2
98 100 107 1
99 102 103 1
100 103 104 1
101 104 105 1
102 104 106 2
103 107 108 1
104 108 109 1
105 108 111 1
106 109 110 2
107 111 112 1
108 112 113 2
109 112 114 1
110 115 116 1
111 116 117 1
112 116 119 1
113 117 118 2
114 119 120 1
115 120 121 1
116 121 122 1
117 122 123 1
118 124 125 1
119 125 126 1
120 125 128 1
121 126 127 2
122 128 129 1
123 129 130 1
124 129 131 1
125 132 133 1
126 133 134 1
127 133 136 1
128 134 135 2
129 134 137 1
130 137 138 1
131 138 139 1
132 138 141 1
133 139 140 2
134 141 142 1
135 142 143 2
136 142 144 1
137 145 146 1
138 146 147 1
139 146 149 1
140 147 148 2
141 149 150 1
142 150 151 1
143 150 152 1
@<TRIPOS>SUBSTRUCTURE
1	ILE10	1	RESIDUE	1 B	ILE
2	GLY13	9	RESIDUE	1 B	GLY
3	VAL18	13	RESIDUE	1 B	VAL
4	ALA31	20	RESIDUE	1 B	ALA
5	LYS33	25	RESIDUE	1 B	LYS
6	VAL64	34	RESIDUE	1 B	VAL
7	LEU78	41	RESIDUE	1 B	LEU
8	PHE80	49	RESIDUE	1 B	PHE
9	GLU81	60	RESIDUE	1 B	GLU
10	PHE82	69	RESIDUE	1 B	PHE
11	LEU83	80	RESIDUE	1 B	LEU
12	HIS84	88	RESIDUE	1 B	HIS
13	GLN85	98	RESIDUE	1 B	GLN
14	ASP86	107	RESIDUE	1 B	ASP
15	LYS89	115	RESIDUE	1 B	LYS
16	LEU134	124	RESIDUE	1 B	LEU
17	ALA144	132	RESIDUE	1 B	ALA
18	ASP145	137	RESIDUE	1 B	ASP
19	LEU148	145	RESIDUE	1 B	LEU
