# created with PyMOL 2.5.2
@<TRIPOS>MOLECULE
PDE_5ML8_TargetProtein
247 230 29              
SMALL
USER_CHARGES
@<TRIPOS>ATOM
1	   N	-33.012	16.888	-8.386	N.am	1	LEU17	0.000	
2	  CA	-31.560	16.803	-8.487	C.3	1	LEU17	0.000	
3	   C	-31.073	18.126	-9.073	C.2	1	LEU17	0.000	
4	   O	-31.513	18.524	-10.143	O.2	1	LEU17	0.000	
5	  CB	-31.168	15.655	-9.398	C.3	1	LEU17	0.000	
6	  CG	-29.770	15.073	-9.231	C.3	1	LEU17	0.000	
7	 CD1	-29.689	14.235	-7.970	C.3	1	LEU17	0.000	
8	 CD2	-29.434	14.213	-10.434	C.3	1	LEU17	0.000	
9	   N	-24.595	17.564	-10.296	N.am	2	MET20	0.000	
10	  CA	-23.943	16.306	-10.100	C.3	2	MET20	0.000	
11	   C	-22.582	16.335	-10.776	C.2	2	MET20	0.000	
12	   O	-22.373	17.077	-11.751	O.2	2	MET20	0.000	
13	  CB	-24.856	15.258	-10.712	C.3	2	MET20	0.000	
14	  CG	-24.273	13.882	-10.926	C.3	2	MET20	0.000	
15	  SD	-25.551	12.716	-11.445	S.3	2	MET20	0.000	
16	  CE	-26.611	13.719	-12.499	C.3	2	MET20	0.000	
17	   N	-18.632	13.801	-11.508	N.am	3	LEU22	0.000	
18	  CA	-17.770	12.636	-11.329	C.3	3	LEU22	0.000	
19	   C	-16.320	13.094	-11.344	C.2	3	LEU22	0.000	
20	   O	-15.949	13.990	-12.102	O.2	3	LEU22	0.000	
21	  CB	-18.014	11.588	-12.418	C.3	3	LEU22	0.000	
22	  CG	-19.474	11.169	-12.670	C.3	3	LEU22	0.000	
23	 CD1	-19.624	10.473	-14.019	C.3	3	LEU22	0.000	
24	 CD2	-20.022	10.299	-11.549	C.3	3	LEU22	0.000	
25	   N	-16.574	14.749	-15.351	N.am	4	TRP32	0.000	
26	  CA	-17.882	15.118	-15.869	C.3	4	TRP32	0.000	
27	   C	-18.649	15.896	-14.803	C.2	4	TRP32	0.000	
28	   O	-18.522	15.631	-13.611	O.2	4	TRP32	0.000	
29	  CB	-18.672	13.850	-16.232	C.3	4	TRP32	0.000	
30	  CG	-20.003	14.106	-16.892	C.2	4	TRP32	0.000	
31	 CD1	-20.242	14.173	-18.223	C.2	4	TRP32	0.000	
32	 CD2	-21.262	14.325	-16.252	C.2	4	TRP32	0.000	
33	 CE2	-22.221	14.527	-17.269	C.2	4	TRP32	0.000	
34	 CE3	-21.676	14.377	-14.923	C.2	4	TRP32	0.000	
35	 NE1	-21.570	14.432	-18.466	N.pl3	4	TRP32	0.000	
36	 CZ2	-23.568	14.772	-16.996	C.2	4	TRP32	0.000	
37	 CZ3	-23.019	14.630	-14.654	C.2	4	TRP32	0.000	
38	 CH2	-23.943	14.823	-15.685	C.2	4	TRP32	0.000	
39	   N	-31.116	14.098	-14.119	N.am	5	LEU38	0.000	
40	  CA	-31.194	12.780	-14.768	C.3	5	LEU38	0.000	
41	   C	-32.100	11.829	-14.017	C.2	5	LEU38	0.000	
42	   O	-32.342	10.724	-14.478	O.2	5	LEU38	0.000	
43	  CB	-29.799	12.158	-14.895	C.3	5	LEU38	0.000	
44	  CG	-28.782	12.982	-15.696	C.3	5	LEU38	0.000	
45	 CD1	-27.442	12.273	-15.728	C.3	5	LEU38	0.000	
46	 CD2	-29.244	13.250	-17.114	C.3	5	LEU38	0.000	
47	   N	-32.603	12.256	-12.863	N.am	6	SER39	0.000	
48	  CA	-33.574	11.473	-12.109	C.3	6	SER39	0.000	
49	   C	-34.958	11.465	-12.774	C.2	6	SER39	0.000	
50	   O	-35.810	10.649	-12.426	O.2	6	SER39	0.000	
51	  CB	-33.714	12.030	-10.682	C.3	6	SER39	0.000	
52	  OG	-34.466	13.249	-10.650	O.3	6	SER39	0.000	
53	   N	-19.742	11.175	-21.596	N.am	7	VAL49	0.000	
54	  CA	-18.651	11.102	-20.641	C.3	7	VAL49	0.000	
55	   C	-17.351	10.798	-21.369	C.2	7	VAL49	0.000	
56	   O	-17.375	10.154	-22.408	O.2	7	VAL49	0.000	
57	  CB	-18.893	10.026	-19.571	C.3	7	VAL49	0.000	
58	 CG1	-20.166	10.333	-18.821	C.3	7	VAL49	0.000	
59	 CG2	-18.961	8.642	-20.178	C.3	7	VAL49	0.000	
60	   N	-12.666	7.579	-18.391	N.am	8	ILE53	0.000	
61	  CA	-13.389	7.115	-17.195	C.3	8	ILE53	0.000	
62	   C	-13.470	5.592	-17.094	C.2	8	ILE53	0.000	
63	   O	-13.565	5.043	-15.998	O.2	8	ILE53	0.000	
64	  CB	-14.833	7.671	-17.166	C.3	8	ILE53	0.000	
65	 CG1	-15.505	7.411	-15.826	C.3	8	ILE53	0.000	
66	 CG2	-15.697	7.074	-18.275	C.3	8	ILE53	0.000	
67	 CD1	-16.776	8.215	-15.659	C.3	8	ILE53	0.000	
68	   N	-13.468	4.918	-18.240	N.am	9	LEU54	0.000	
69	  CA	-13.556	3.461	-18.273	C.3	9	LEU54	0.000	
70	   C	-12.288	2.782	-17.745	C.2	9	LEU54	0.000	
71	   O	-12.330	1.617	-17.360	O.2	9	LEU54	0.000	
72	  CB	-13.863	2.970	-19.691	C.3	9	LEU54	0.000	
73	  CG	-15.271	3.234	-20.231	C.3	9	LEU54	0.000	
74	 CD1	-15.321	2.909	-21.714	C.3	9	LEU54	0.000	
75	 CD2	-16.357	2.455	-19.489	C.3	9	LEU54	0.000	
76	   N	-11.174	3.512	-17.717	N.am	10	LYS55	0.000	
77	  CA	-9.906	2.968	-17.218	C.3	10	LYS55	0.000	
78	   C	-9.673	3.235	-15.725	C.2	10	LYS55	0.000	
79	   O	-8.790	2.625	-15.132	O.2	10	LYS55	0.000	
80	  CB	-8.731	3.508	-18.040	C.3	10	LYS55	0.000	
81	  CG	-8.923	3.314	-19.534	C.3	10	LYS55	0.000	
82	  CD	-7.617	3.297	-20.310	C.3	10	LYS55	0.000	
83	  CE	-7.852	2.878	-21.761	C.3	10	LYS55	0.000	
84	  NZ	-8.366	1.481	-21.883	N.4	10	LYS55	0.000	
85	   N	-10.457	4.140	-15.131	N.am	11	CYS56	0.000	
86	  CA	-10.396	4.411	-13.695	C.3	11	CYS56	0.000	
87	   C	-10.728	3.169	-12.915	C.2	11	CYS56	0.000	
88	   O	-11.694	2.493	-13.232	O.2	11	CYS56	0.000	
89	  CB	-11.414	5.471	-13.307	C.3	11	CYS56	0.000	
90	  SG	-11.108	7.048	-14.092	S.3	11	CYS56	0.000	
91	   N	-14.330	5.781	-9.292	N.am	12	VAL59	0.000	
92	  CA	-14.885	7.085	-9.613	C.3	12	VAL59	0.000	
93	   C	-15.608	7.598	-8.380	C.2	12	VAL59	0.000	
94	   O	-16.336	6.842	-7.734	O.2	12	VAL59	0.000	
95	  CB	-15.898	6.974	-10.781	C.3	12	VAL59	0.000	
96	 CG1	-16.587	8.309	-11.051	C.3	12	VAL59	0.000	
97	 CG2	-15.210	6.463	-12.038	C.3	12	VAL59	0.000	
98	   N	-18.467	10.111	-7.097	N.am	13	ARG61	0.000	
99	  CA	-19.634	10.882	-7.556	C.3	13	ARG61	0.000	
100	   C	-20.220	11.745	-6.452	C.2	13	ARG61	0.000	
101	   O	-20.475	11.256	-5.359	O.2	13	ARG61	0.000	
102	  CB	-20.714	9.933	-8.032	C.3	13	ARG61	0.000	
103	  CG	-22.030	10.605	-8.389	C.3	13	ARG61	0.000	
104	  CD	-22.976	9.571	-8.948	C.3	13	ARG61	0.000	
105	  NE	-23.615	8.790	-7.901	N.pl3	13	ARG61	0.000	
106	  CZ	-24.106	7.564	-8.063	C.cat	13	ARG61	0.000	
107	 NH1	-24.001	6.919	-9.229	N.pl3	13	ARG61	0.000	
108	 NH2	-24.690	6.957	-7.038	N.pl3	13	ARG61	0.000	
109	   N	-23.628	14.035	-5.752	N.am	14	LEU63	0.000	
110	  CA	-24.963	14.469	-6.176	C.3	14	LEU63	0.000	
111	   C	-25.440	15.545	-5.244	C.2	14	LEU63	0.000	
112	   O	-25.196	15.471	-4.055	O.2	14	LEU63	0.000	
113	  CB	-25.980	13.355	-6.035	C.3	14	LEU63	0.000	
114	  CG	-25.741	12.010	-6.692	C.3	14	LEU63	0.000	
115	 CD1	-26.970	11.142	-6.488	C.3	14	LEU63	0.000	
116	 CD2	-25.449	12.188	-8.167	C.3	14	LEU63	0.000	
117	   N	-28.634	1.090	-8.910	N.am	15	GLN78	0.000	
118	  CA	-28.307	1.403	-10.312	C.3	15	GLN78	0.000	
119	   C	-27.834	0.193	-11.070	C.2	15	GLN78	0.000	
120	   O	-26.978	-0.523	-10.584	O.2	15	GLN78	0.000	
121	  CB	-27.241	2.464	-10.369	C.3	15	GLN78	0.000	
122	  CG	-27.768	3.802	-9.948	C.3	15	GLN78	0.000	
123	  CD	-26.728	4.852	-10.122	C.2	15	GLN78	0.000	
124	 NE2	-26.941	5.770	-11.057	N.pl3	15	GLN78	0.000	
125	 OE1	-25.732	4.835	-9.431	O.2	15	GLN78	0.000	
126	   N	-26.393	-1.347	-14.796	N.am	16	VAL80	0.000	
127	  CA	-25.707	-1.062	-16.046	C.3	16	VAL80	0.000	
128	   C	-26.152	-2.087	-17.068	C.2	16	VAL80	0.000	
129	   O	-25.811	-3.249	-16.947	O.2	16	VAL80	0.000	
130	  CB	-24.171	-1.174	-15.858	C.3	16	VAL80	0.000	
131	 CG1	-23.430	-0.830	-17.146	C.3	16	VAL80	0.000	
132	 CG2	-23.716	-0.280	-14.712	C.3	16	VAL80	0.000	
133	   N	-25.165	-5.918	-16.682	N.am	17	LEU87	0.000	
134	  CA	-23.761	-6.276	-16.458	C.3	17	LEU87	0.000	
135	   C	-23.332	-6.041	-15.011	C.2	17	LEU87	0.000	
136	   O	-22.495	-6.767	-14.486	O.2	17	LEU87	0.000	
137	  CB	-22.865	-5.400	-17.324	C.3	17	LEU87	0.000	
138	  CG	-22.372	-5.849	-18.693	C.3	17	LEU87	0.000	
139	 CD1	-23.410	-6.593	-19.512	C.3	17	LEU87	0.000	
140	 CD2	-21.900	-4.590	-19.401	C.3	17	LEU87	0.000	
141	   N	-23.832	-4.974	-14.391	N.am	18	GLU88	0.000	
142	  CA	-23.684	-4.833	-12.951	C.3	18	GLU88	0.000	
143	   C	-24.795	-4.059	-12.253	C.2	18	GLU88	0.000	
144	   O	-25.628	-3.417	-12.883	O.2	18	GLU88	0.000	
145	  CB	-22.292	-4.331	-12.526	C.3	18	GLU88	0.000	
146	  CG	-21.472	-3.523	-13.509	C.3	18	GLU88	0.000	
147	  CD	-20.047	-3.319	-12.995	C.2	18	GLU88	0.000	
148	 OE1	-19.860	-3.249	-11.762	O.co2	18	GLU88	0.000	
149	 OE2	-19.104	-3.254	-13.811	O.co2	18	GLU88	0.000	
150	   N	-25.347	-1.622	-8.664	N.am	19	TRP90	0.000	
151	  CA	-24.732	-0.832	-7.614	C.3	19	TRP90	0.000	
152	   C	-25.798	-0.451	-6.600	C.2	19	TRP90	0.000	
153	   O	-26.940	-0.178	-6.965	O.2	19	TRP90	0.000	
154	  CB	-24.133	0.445	-8.193	C.3	19	TRP90	0.000	
155	  CG	-23.124	0.255	-9.276	C.2	19	TRP90	0.000	
156	 CD1	-22.302	-0.816	-9.457	C.2	19	TRP90	0.000	
157	 CD2	-22.791	1.193	-10.307	C.2	19	TRP90	0.000	
158	 CE2	-21.767	0.613	-11.086	C.2	19	TRP90	0.000	
159	 CE3	-23.258	2.471	-10.646	C.2	19	TRP90	0.000	
160	 NE1	-21.489	-0.615	-10.550	N.pl3	19	TRP90	0.000	
161	 CZ2	-21.197	1.261	-12.173	C.2	19	TRP90	0.000	
162	 CZ3	-22.691	3.116	-11.734	C.2	19	TRP90	0.000	
163	 CH2	-21.670	2.507	-12.489	C.2	19	TRP90	0.000	
164	   N	-17.660	4.647	-6.712	N.am	20	ILE109	0.000	
165	  CA	-17.976	3.555	-7.621	C.3	20	ILE109	0.000	
166	   C	-16.653	2.861	-7.971	C.2	20	ILE109	0.000	
167	   O	-15.675	3.523	-8.324	O.2	20	ILE109	0.000	
168	  CB	-18.690	4.099	-8.876	C.3	20	ILE109	0.000	
169	 CG1	-19.747	5.148	-8.465	C.3	20	ILE109	0.000	
170	 CG2	-19.316	2.960	-9.664	C.3	20	ILE109	0.000	
171	 CD1	-20.477	5.809	-9.616	C.3	20	ILE109	0.000	
172	   N	-16.618	1.537	-7.851	N.am	21	GLU110	0.000	
173	  CA	-15.358	0.802	-7.915	C.3	21	GLU110	0.000	
174	   C	-15.344	-0.236	-9.026	C.2	21	GLU110	0.000	
175	   O	-16.388	-0.720	-9.438	O.2	21	GLU110	0.000	
176	  CB	-15.080	0.144	-6.561	C.3	21	GLU110	0.000	
177	  CG	-14.834	1.151	-5.441	C.3	21	GLU110	0.000	
178	  CD	-14.673	0.498	-4.075	C.2	21	GLU110	0.000	
179	 OE1	-15.463	0.824	-3.161	O.co2	21	GLU110	0.000	
180	 OE2	-13.766	-0.347	-3.913	O.co2	21	GLU110	0.000	
181	   N	-13.502	-5.763	-19.522	N.3	22	MET117	0.000	
182	  CA	-13.916	-4.407	-19.879	C.3	22	MET117	0.000	
183	   C	-13.800	-4.192	-21.401	C.2	22	MET117	0.000	
184	   O	-12.704	-4.224	-21.960	O.2	22	MET117	0.000	
185	  CB	-13.073	-3.383	-19.113	C.3	22	MET117	0.000	
186	  CG	-13.496	-1.924	-19.287	C.3	22	MET117	0.000	
187	  SD	-15.191	-1.466	-18.822	S.3	22	MET117	0.000	
188	  CE	-15.459	-2.421	-17.323	C.3	22	MET117	0.000	
189	   N	-27.895	3.279	-18.118	N.am	23	ILE129	0.000	
190	  CA	-27.909	3.214	-16.669	C.3	23	ILE129	0.000	
191	   C	-29.355	3.374	-16.235	C.2	23	ILE129	0.000	
192	   O	-29.977	4.404	-16.530	O.2	23	ILE129	0.000	
193	  CB	-27.069	4.318	-16.009	C.3	23	ILE129	0.000	
194	 CG1	-25.674	4.402	-16.615	C.3	23	ILE129	0.000	
195	 CG2	-26.994	4.089	-14.498	C.3	23	ILE129	0.000	
196	 CD1	-24.804	3.193	-16.379	C.3	23	ILE129	0.000	
197	   N	-31.615	3.772	-13.001	N.am	24	THR131	0.000	
198	  CA	-31.517	4.191	-11.609	C.3	24	THR131	0.000	
199	   C	-32.887	4.132	-10.963	C.2	24	THR131	0.000	
200	   O	-33.856	4.672	-11.497	O.2	24	THR131	0.000	
201	  CB	-31.014	5.636	-11.517	C.3	24	THR131	0.000	
202	 CG2	-30.994	6.134	-10.082	C.3	24	THR131	0.000	
203	 OG1	-29.686	5.709	-12.028	O.3	24	THR131	0.000	
204	   N	-34.833	5.143	-7.401	N.am	25	PHE133	0.000	
205	  CA	-34.801	5.892	-6.145	C.3	25	PHE133	0.000	
206	   C	-35.788	5.255	-5.190	C.2	25	PHE133	0.000	
207	   O	-36.962	5.093	-5.544	O.2	25	PHE133	0.000	
208	  CB	-35.186	7.357	-6.367	C.3	25	PHE133	0.000	
209	  CG	-34.204	8.114	-7.222	C.2	25	PHE133	0.000	
210	 CD1	-34.223	7.985	-8.611	C.2	25	PHE133	0.000	
211	 CD2	-33.252	8.950	-6.646	C.2	25	PHE133	0.000	
212	 CE1	-33.317	8.675	-9.396	C.2	25	PHE133	0.000	
213	 CE2	-32.339	9.637	-7.432	C.2	25	PHE133	0.000	
214	  CZ	-32.373	9.495	-8.805	C.2	25	PHE133	0.000	
215	   N	-35.446	5.875	-13.575	N.am	26	SER143	0.000	
216	  CA	-34.930	6.719	-14.635	C.3	26	SER143	0.000	
217	   C	-33.841	6.014	-15.456	C.2	26	SER143	0.000	
218	   O	-33.158	5.109	-14.945	O.2	26	SER143	0.000	
219	  CB	-34.428	8.038	-14.041	C.3	26	SER143	0.000	
220	  OG	-33.073	7.981	-13.629	O.3	26	SER143	0.000	
221	   N	-30.496	6.549	-18.343	N.am	27	VAL145	0.000	
222	  CA	-29.521	7.420	-19.033	C.3	27	VAL145	0.000	
223	   C	-28.685	6.609	-20.022	C.2	27	VAL145	0.000	
224	   O	-28.017	5.645	-19.643	O.2	27	VAL145	0.000	
225	  CB	-28.552	8.135	-18.052	C.3	27	VAL145	0.000	
226	 CG1	-27.658	9.106	-18.804	C.3	27	VAL145	0.000	
227	 CG2	-29.322	8.910	-16.994	C.3	27	VAL145	0.000	
228	   N	-25.440	6.306	-22.195	N.am	28	LEU147	0.000	
229	  CA	-24.092	6.884	-22.180	C.3	28	LEU147	0.000	
230	   C	-23.398	6.783	-23.523	C.2	28	LEU147	0.000	
231	   O	-23.436	5.749	-24.179	O.2	28	LEU147	0.000	
232	  CB	-23.204	6.230	-21.125	C.3	28	LEU147	0.000	
233	  CG	-23.763	6.286	-19.707	C.3	28	LEU147	0.000	
234	 CD1	-22.694	5.861	-18.711	C.3	28	LEU147	0.000	
235	 CD2	-24.307	7.675	-19.388	C.3	28	LEU147	0.000	
236	   N	-19.489	7.573	-24.965	N.am	29	TYR149	0.000	
237	  CA	-18.133	7.746	-24.491	C.3	29	TYR149	0.000	
238	   C	-17.333	8.469	-25.565	C.2	29	TYR149	0.000	
239	   O	-17.231	7.977	-26.686	O.2	29	TYR149	0.000	
240	  CB	-17.517	6.388	-24.179	C.3	29	TYR149	0.000	
241	  CG	-18.263	5.614	-23.121	C.2	29	TYR149	0.000	
242	 CD1	-18.018	5.841	-21.762	C.2	29	TYR149	0.000	
243	 CD2	-19.213	4.648	-23.473	C.2	29	TYR149	0.000	
244	 CE1	-18.706	5.132	-20.780	C.2	29	TYR149	0.000	
245	 CE2	-19.904	3.933	-22.502	C.2	29	TYR149	0.000	
246	  CZ	-19.644	4.173	-21.160	C.2	29	TYR149	0.000	
247	  OH	-20.316	3.466	-20.196	O.3	29	TYR149	0.000	
@<TRIPOS>BOND
1 1 2 1
2 2 3 1
3 2 5 1
4 3 4 2
5 5 6 1
6 6 7 1
7 6 8 1
8 9 10 1
9 10 11 1
10 10 13 1
11 11 12 2
12 13 14 1
13 14 15 1
14 15 16 1
15 17 18 1
16 18 19 1
17 18 21 1
18 19 20 2
19 21 22 1
20 22 23 1
21 22 24 1
22 25 26 1
23 26 27 1
24 26 29 1
25 27 28 2
26 29 30 1
27 30 31 2
28 30 32 1
29 31 35 1
30 32 33 2
31 32 34 1
32 33 36 1
33 34 37 2
34 33 35 1
35 36 38 2
36 37 38 1
37 39 40 1
38 40 41 1
39 40 43 1
40 41 42 2
41 41 47 1
42 43 44 1
43 44 45 1
44 44 46 1
45 47 48 1
46 48 49 1
47 48 51 1
48 49 50 2
49 51 52 1
50 53 54 1
51 54 55 1
52 54 57 1
53 55 56 2
54 57 58 1
55 57 59 1
56 60 61 1
57 61 62 1
58 61 64 1
59 62 63 2
60 62 68 1
61 64 65 1
62 64 66 1
63 65 67 1
64 68 69 1
65 69 70 1
66 69 72 1
67 70 71 2
68 70 76 1
69 72 73 1
70 73 74 1
71 73 75 1
72 76 77 1
73 77 78 1
74 77 80 1
75 78 79 2
76 78 85 1
77 80 81 1
78 81 82 1
79 82 83 1
80 83 84 1
81 85 86 1
82 86 87 1
83 86 89 1
84 87 88 2
85 89 90 1
86 91 92 1
87 92 93 1
88 92 95 1
89 93 94 2
90 95 96 1
91 95 97 1
92 98 99 1
93 99 100 1
94 99 102 1
95 100 101 2
96 102 103 1
97 103 104 1
98 104 105 1
99 105 106 1
100 106 107 2
101 106 108 1
102 109 110 1
103 110 111 1
104 110 113 1
105 111 112 2
106 113 114 1
107 114 115 1
108 114 116 1
109 117 118 1
110 118 119 1
111 118 121 1
112 119 120 2
113 121 122 1
114 122 123 1
115 123 124 1
116 123 125 2
117 126 127 1
118 127 128 1
119 127 130 1
120 128 129 2
121 130 131 1
122 130 132 1
123 133 134 1
124 134 135 1
125 134 137 1
126 135 136 2
127 135 141 1
128 137 138 1
129 138 139 1
130 138 140 1
131 141 142 1
132 142 143 1
133 142 145 1
134 143 144 2
135 145 146 1
136 146 147 1
137 147 148 2
138 147 149 1
139 150 151 1
140 151 152 1
141 151 154 1
142 152 153 2
143 154 155 1
144 155 156 2
145 155 157 1
146 156 160 1
147 157 158 2
148 157 159 1
149 158 161 1
150 159 162 2
151 158 160 1
152 161 163 2
153 162 163 1
154 164 165 1
155 165 166 1
156 165 168 1
157 166 167 2
158 166 172 1
159 168 169 1
160 168 170 1
161 169 171 1
162 172 173 1
163 173 174 1
164 173 176 1
165 174 175 2
166 176 177 1
167 177 178 1
168 178 179 2
169 178 180 1
170 181 182 1
171 182 183 1
172 182 185 1
173 183 184 2
174 185 186 1
175 186 187 1
176 187 188 1
177 189 190 1
178 190 191 1
179 190 193 1
180 191 192 2
181 193 194 1
182 193 195 1
183 194 196 1
184 197 198 1
185 198 199 1
186 198 201 1
187 199 200 2
188 201 202 1
189 201 203 1
190 204 205 1
191 205 206 1
192 205 208 1
193 206 207 2
194 208 209 1
195 209 210 2
196 209 211 1
197 210 212 1
198 211 213 2
199 212 214 2
200 213 214 1
201 215 216 1
202 216 217 1
203 216 219 1
204 217 218 2
205 219 220 1
206 221 222 1
207 222 223 1
208 222 225 1
209 223 224 2
210 225 226 1
211 225 227 1
212 228 229 1
213 229 230 1
214 229 232 1
215 230 231 2
216 232 233 1
217 233 234 1
218 233 235 1
219 236 237 1
220 237 238 1
221 237 240 1
222 238 239 2
223 240 241 1
224 241 242 2
225 241 243 1
226 242 244 1
227 243 245 2
228 244 246 2
229 245 246 1
230 246 247 1
@<TRIPOS>SUBSTRUCTURE
1	LEU17	1	RESIDUE	1 B	LEU
2	MET20	9	RESIDUE	1 B	MET
3	LEU22	17	RESIDUE	1 B	LEU
4	TRP32	25	RESIDUE	1 B	TRP
5	LEU38	39	RESIDUE	1 B	LEU
6	SER39	47	RESIDUE	1 B	SER
7	VAL49	53	RESIDUE	1 B	VAL
8	ILE53	60	RESIDUE	1 B	ILE
9	LEU54	68	RESIDUE	1 B	LEU
10	LYS55	76	RESIDUE	1 B	LYS
11	CYS56	85	RESIDUE	1 B	CYS
12	VAL59	91	RESIDUE	1 B	VAL
13	ARG61	98	RESIDUE	1 B	ARG
14	LEU63	109	RESIDUE	1 B	LEU
15	GLN78	117	RESIDUE	1 B	GLN
16	VAL80	126	RESIDUE	1 B	VAL
17	LEU87	133	RESIDUE	1 B	LEU
18	GLU88	141	RESIDUE	1 B	GLU
19	TRP90	150	RESIDUE	1 B	TRP
20	ILE109	164	RESIDUE	1 B	ILE
21	GLU110	172	RESIDUE	1 B	GLU
22	MET117	181	RESIDUE	1 B	MET
23	ILE129	189	RESIDUE	1 B	ILE
24	THR131	197	RESIDUE	1 B	THR
25	PHE133	204	RESIDUE	1 B	PHE
26	SER143	215	RESIDUE	1 B	SER
27	VAL145	221	RESIDUE	1 B	VAL
28	LEU147	228	RESIDUE	1 B	LEU
29	TYR149	236	RESIDUE	1 B	TYR
