# created with PyMOL 2.5.2
@<TRIPOS>MOLECULE
BRD4_6JJB_TargetProtein
117 116 13              
SMALL
USER_CHARGES
@<TRIPOS>ATOM
1	   N	30.483	23.936	40.266	N.am	1	TRP81	0.000	
2	  CA	30.777	25.230	40.883	C.3	1	TRP81	0.000	
3	   C	29.553	26.081	41.220	C.2	1	TRP81	0.000	
4	   O	29.622	26.795	42.243	O.2	1	TRP81	0.000	
5	  CB	31.779	26.011	40.008	C.3	1	TRP81	0.000	
6	  CG	31.332	26.336	38.620	C.2	1	TRP81	0.000	
7	 CD1	31.556	25.599	37.493	C.2	1	TRP81	0.000	
8	 CD2	30.586	27.482	38.208	C.2	1	TRP81	0.000	
9	 CE2	30.400	27.385	36.816	C.2	1	TRP81	0.000	
10	 CE3	30.064	28.591	38.886	C.2	1	TRP81	0.000	
11	 NE1	31.005	26.231	36.398	N.pl3	1	TRP81	0.000	
12	 CZ2	29.708	28.346	36.087	C.2	1	TRP81	0.000	
13	 CZ3	29.381	29.548	38.153	C.2	1	TRP81	0.000	
14	 CH2	29.200	29.411	36.775	C.2	1	TRP81	0.000	
15	   N	28.440	26.077	40.460	N.am	2	PRO82	0.000	
16	  CA	27.294	26.912	40.853	C.3	2	PRO82	0.000	
17	   C	26.586	26.427	42.076	C.2	2	PRO82	0.000	
18	   O	25.780	27.182	42.649	O.2	2	PRO82	0.000	
19	  CB	26.341	26.833	39.650	C.3	2	PRO82	0.000	
20	  CG	27.149	26.337	38.527	C.3	2	PRO82	0.000	
21	  CD	28.166	25.410	39.177	C.3	2	PRO82	0.000	
22	   N	26.855	25.192	42.489	N.am	3	PHE83	0.000	
23	  CA	26.135	24.569	43.581	C.3	3	PHE83	0.000	
24	   C	27.013	24.366	44.803	C.2	3	PHE83	0.000	
25	   O	26.585	23.686	45.752	O.2	3	PHE83	0.000	
26	  CB	25.561	23.239	43.081	C.3	3	PHE83	0.000	
27	  CG	24.738	23.386	41.830	C.2	3	PHE83	0.000	
28	 CD1	23.412	23.771	41.912	C.2	3	PHE83	0.000	
29	 CD2	25.295	23.152	40.579	C.2	3	PHE83	0.000	
30	 CE1	22.643	23.926	40.770	C.2	3	PHE83	0.000	
31	 CE2	24.537	23.319	39.417	C.2	3	PHE83	0.000	
32	  CZ	23.207	23.692	39.506	C.2	3	PHE83	0.000	
33	   N	23.352	30.362	47.035	N.am	4	VAL87	0.000	
34	  CA	23.182	31.423	46.050	C.3	4	VAL87	0.000	
35	   C	23.310	32.762	46.757	C.2	4	VAL87	0.000	
36	   O	22.590	33.043	47.723	O.2	4	VAL87	0.000	
37	  CB	21.840	31.282	45.324	C.3	4	VAL87	0.000	
38	 CG1	21.587	32.499	44.421	C.3	4	VAL87	0.000	
39	 CG2	21.808	29.960	44.535	C.3	4	VAL87	0.000	
40	   N	25.537	37.535	42.411	N.am	5	LEU92	0.000	
41	  CA	25.117	37.007	41.119	C.3	5	LEU92	0.000	
42	   C	24.029	37.828	40.455	C.2	5	LEU92	0.000	
43	   O	23.594	37.459	39.357	O.2	5	LEU92	0.000	
44	  CB	24.615	35.580	41.293	C.3	5	LEU92	0.000	
45	  CG	25.657	34.608	41.821	C.3	5	LEU92	0.000	
46	 CD1	24.964	33.333	42.184	C.3	5	LEU92	0.000	
47	 CD2	26.698	34.358	40.737	C.3	5	LEU92	0.000	
48	   N	23.569	38.901	41.097	N.am	6	ASN93	0.000	
49	  CA	22.542	39.788	40.553	C.3	6	ASN93	0.000	
50	   C	21.251	39.024	40.252	C.2	6	ASN93	0.000	
51	   O	20.659	39.127	39.177	O.2	6	ASN93	0.000	
52	  CB	23.069	40.522	39.322	C.3	6	ASN93	0.000	
53	  CG	24.409	41.185	39.577	C.2	6	ASN93	0.000	
54	 ND2	25.343	41.001	38.656	N.pl3	6	ASN93	0.000	
55	 OD1	24.602	41.851	40.591	O.2	6	ASN93	0.000	
56	   N	20.798	38.257	41.242	N.am	7	LEU94	0.000	
57	  CA	19.535	37.529	41.175	C.3	7	LEU94	0.000	
58	   C	18.611	38.034	42.281	C.2	7	LEU94	0.000	
59	   O	18.325	37.304	43.238	O.2	7	LEU94	0.000	
60	  CB	19.773	36.022	41.310	C.3	7	LEU94	0.000	
61	  CG	20.696	35.342	40.278	C.3	7	LEU94	0.000	
62	 CD1	21.083	33.902	40.663	C.3	7	LEU94	0.000	
63	 CD2	20.027	35.378	38.907	C.3	7	LEU94	0.000	
64	   N	15.740	35.697	43.492	N.am	8	TYR97	0.000	
65	  CA	15.969	34.286	43.802	C.3	8	TYR97	0.000	
66	   C	15.196	33.872	45.034	C.2	8	TYR97	0.000	
67	   O	14.445	32.891	45.019	O.2	8	TYR97	0.000	
68	  CB	17.452	34.007	44.023	C.3	8	TYR97	0.000	
69	  CG	17.684	32.525	44.167	C.2	8	TYR97	0.000	
70	 CD1	17.669	31.702	43.047	C.2	8	TYR97	0.000	
71	 CD2	17.873	31.949	45.414	C.2	8	TYR97	0.000	
72	 CE1	17.859	30.341	43.176	C.2	8	TYR97	0.000	
73	 CE2	18.048	30.585	45.559	C.2	8	TYR97	0.000	
74	  CZ	18.033	29.790	44.446	C.2	8	TYR97	0.000	
75	  OH	18.218	28.435	44.563	O.3	8	TYR97	0.000	
76	   N	15.047	23.110	43.320	N.am	9	ASN135	0.000	
77	  CA	15.128	24.572	43.356	C.3	9	ASN135	0.000	
78	   C	15.638	25.116	42.040	C.2	9	ASN135	0.000	
79	   O	15.162	26.151	41.555	O.2	9	ASN135	0.000	
80	  CB	16.044	25.036	44.492	C.3	9	ASN135	0.000	
81	  CG	15.394	24.926	45.829	C.2	9	ASN135	0.000	
82	 ND2	16.191	25.045	46.875	N.pl3	9	ASN135	0.000	
83	 OD1	14.184	24.759	45.931	O.2	9	ASN135	0.000	
84	   N	16.614	24.433	41.451	N.am	10	CYS136	0.000	
85	  CA	17.186	24.920	40.211	C.3	10	CYS136	0.000	
86	   C	16.163	24.833	39.090	C.2	10	CYS136	0.000	
87	   O	16.060	25.749	38.264	O.2	10	CYS136	0.000	
88	  CB	18.452	24.129	39.889	C.3	10	CYS136	0.000	
89	  SG	19.338	24.746	38.469	S.3	10	CYS136	0.000	
90	   N	13.406	27.627	39.796	N.am	11	TYR139	0.000	
91	  CA	13.783	29.022	39.594	C.3	11	TYR139	0.000	
92	   C	14.039	29.336	38.137	C.2	11	TYR139	0.000	
93	   O	13.882	30.490	37.715	O.2	11	TYR139	0.000	
94	  CB	15.031	29.382	40.409	C.3	11	TYR139	0.000	
95	  CG	15.488	30.806	40.187	C.2	11	TYR139	0.000	
96	 CD1	14.733	31.874	40.650	C.2	11	TYR139	0.000	
97	 CD2	16.657	31.082	39.487	C.2	11	TYR139	0.000	
98	 CE1	15.139	33.185	40.425	C.2	11	TYR139	0.000	
99	 CE2	17.072	32.375	39.263	C.2	11	TYR139	0.000	
100	  CZ	16.311	33.421	39.728	C.2	11	TYR139	0.000	
101	  OH	16.738	34.710	39.490	O.3	11	TYR139	0.000	
102	   N	14.439	28.345	37.348	N.am	12	ASN140	0.000	
103	  CA	14.837	28.625	35.993	C.3	12	ASN140	0.000	
104	   C	13.736	28.148	35.042	C.2	12	ASN140	0.000	
105	   O	12.539	28.263	35.369	O.2	12	ASN140	0.000	
106	  CB	16.204	27.998	35.756	C.3	12	ASN140	0.000	
107	  CG	17.277	28.604	36.647	C.2	12	ASN140	0.000	
108	 ND2	17.702	27.870	37.682	N.pl3	12	ASN140	0.000	
109	 OD1	17.712	29.739	36.408	O.2	12	ASN140	0.000	
110	   N	22.099	26.626	33.316	N.am	13	ILE146	0.000	
111	  CA	22.234	26.169	34.689	C.3	13	ILE146	0.000	
112	   C	21.398	24.924	34.913	C.2	13	ILE146	0.000	
113	   O	21.760	24.058	35.715	O.2	13	ILE146	0.000	
114	  CB	21.855	27.299	35.663	C.3	13	ILE146	0.000	
115	 CG1	22.236	26.906	37.079	C.3	13	ILE146	0.000	
116	 CG2	20.371	27.567	35.617	C.3	13	ILE146	0.000	
117	 CD1	23.693	26.625	37.243	C.3	13	ILE146	0.000	
@<TRIPOS>BOND
1 1 2 1
2 2 3 1
3 2 5 1
4 3 4 2
5 3 15 1
6 5 6 1
7 6 7 2
8 6 8 1
9 7 11 1
10 8 9 2
11 8 10 1
12 9 12 1
13 10 13 2
14 9 11 1
15 12 14 2
16 13 14 1
17 15 16 1
18 15 21 1
19 16 17 1
20 16 19 1
21 17 18 2
22 17 22 1
23 19 20 1
24 20 21 1
25 22 23 1
26 23 24 1
27 23 26 1
28 24 25 2
29 26 27 1
30 27 28 2
31 27 29 1
32 28 30 1
33 29 31 2
34 30 32 2
35 31 32 1
36 33 34 1
37 34 35 1
38 34 37 1
39 35 36 2
40 37 38 1
41 37 39 1
42 40 41 1
43 41 42 1
44 41 44 1
45 42 43 2
46 42 48 1
47 44 45 1
48 45 46 1
49 45 47 1
50 48 49 1
51 49 50 1
52 49 52 1
53 50 51 2
54 50 56 1
55 52 53 1
56 53 54 1
57 53 55 2
58 56 57 1
59 57 58 1
60 57 60 1
61 58 59 2
62 60 61 1
63 61 62 1
64 61 63 1
65 64 65 1
66 65 66 1
67 65 68 1
68 66 67 2
69 68 69 1
70 69 70 2
71 69 71 1
72 70 72 1
73 71 73 2
74 72 74 2
75 73 74 1
76 74 75 1
77 76 77 1
78 77 78 1
79 77 80 1
80 78 79 2
81 78 84 1
82 80 81 1
83 81 82 1
84 81 83 2
85 84 85 1
86 85 86 1
87 85 88 1
88 86 87 2
89 88 89 1
90 90 91 1
91 91 92 1
92 91 94 1
93 92 93 2
94 92 102 1
95 94 95 1
96 95 96 2
97 95 97 1
98 96 98 1
99 97 99 2
100 98 100 2
101 99 100 1
102 100 101 1
103 102 103 1
104 103 104 1
105 103 106 1
106 104 105 2
107 106 107 1
108 107 108 1
109 107 109 2
110 110 111 1
111 111 112 1
112 111 114 1
113 112 113 2
114 114 115 1
115 114 116 1
116 115 117 1
@<TRIPOS>SUBSTRUCTURE
1	TRP81	1	RESIDUE	1 B	TRP
2	PRO82	15	RESIDUE	1 B	PRO
3	PHE83	22	RESIDUE	1 B	PHE
4	VAL87	33	RESIDUE	1 B	VAL
5	LEU92	40	RESIDUE	1 B	LEU
6	ASN93	48	RESIDUE	1 B	ASN
7	LEU94	56	RESIDUE	1 B	LEU
8	TYR97	64	RESIDUE	1 B	TYR
9	ASN135	76	RESIDUE	1 B	ASN
10	CYS136	84	RESIDUE	1 B	CYS
11	TYR139	90	RESIDUE	1 B	TYR
12	ASN140	102	RESIDUE	1 B	ASN
13	ILE146	110	RESIDUE	1 B	ILE
