# created with PyMOL 2.5.2
@<TRIPOS>MOLECULE
BRAF_5CSX_TargetProtein
207 200 27              
SMALL
USER_CHARGES
@<TRIPOS>ATOM
1	   N	9.190	-78.080	91.693	N.am	1	ILE463	0.000	
2	  CA	10.275	-79.050	91.867	C.3	1	ILE463	0.000	
3	   C	10.952	-78.927	93.242	C.2	1	ILE463	0.000	
4	   O	11.383	-79.930	93.802	O.2	1	ILE463	0.000	
5	  CB	11.296	-78.934	90.683	C.3	1	ILE463	0.000	
6	 CG1	11.128	-80.111	89.730	C.3	1	ILE463	0.000	
7	 CG2	12.743	-78.889	91.153	C.3	1	ILE463	0.000	
8	 CD1	9.791	-80.185	89.086	C.3	1	ILE463	0.000	
9	   N	11.044	-77.709	93.772	N.am	2	GLY464	0.000	
10	  CA	11.572	-77.486	95.119	C.3	2	GLY464	0.000	
11	   C	11.121	-76.180	95.744	C.2	2	GLY464	0.000	
12	   O	10.714	-75.250	95.041	O.2	2	GLY464	0.000	
13	   N	11.179	-73.270	92.989	N.am	3	VAL471	0.000	
14	  CA	11.624	-73.653	91.649	C.3	3	VAL471	0.000	
15	   C	10.571	-74.503	90.959	C.2	3	VAL471	0.000	
16	   O	10.059	-75.455	91.541	O.2	3	VAL471	0.000	
17	  CB	12.931	-74.463	91.689	C.3	3	VAL471	0.000	
18	 CG1	13.533	-74.555	90.294	C.3	3	VAL471	0.000	
19	 CG2	13.921	-73.830	92.646	C.3	3	VAL471	0.000	
20	   N	13.844	-74.462	83.620	N.am	4	ALA481	0.000	
21	  CA	13.631	-74.333	85.056	C.3	4	ALA481	0.000	
22	   C	13.399	-72.856	85.343	C.2	4	ALA481	0.000	
23	   O	14.063	-72.002	84.751	O.2	4	ALA481	0.000	
24	  CB	14.826	-74.847	85.831	C.3	4	ALA481	0.000	
25	   N	12.452	-72.571	86.242	N.am	5	VAL482	0.000	
26	  CA	12.089	-71.209	86.643	C.3	5	VAL482	0.000	
27	   C	12.137	-71.071	88.164	C.2	5	VAL482	0.000	
28	   O	11.260	-71.585	88.867	O.2	5	VAL482	0.000	
29	  CB	10.663	-70.845	86.176	C.3	5	VAL482	0.000	
30	 CG1	10.312	-69.425	86.605	C.3	5	VAL482	0.000	
31	 CG2	10.538	-70.999	84.677	C.3	5	VAL482	0.000	
32	   N	13.153	-70.374	88.666	N.am	6	LYS483	0.000	
33	  CA	13.259	-70.070	90.087	C.3	6	LYS483	0.000	
34	   C	12.562	-68.739	90.347	C.2	6	LYS483	0.000	
35	   O	13.049	-67.691	89.922	O.2	6	LYS483	0.000	
36	  CB	14.722	-70.003	90.520	C.3	6	LYS483	0.000	
37	  CG	14.936	-69.686	91.997	C.3	6	LYS483	0.000	
38	  CD	16.411	-69.627	92.334	C.3	6	LYS483	0.000	
39	  CE	16.656	-68.944	93.664	C.3	6	LYS483	0.000	
40	  NZ	18.114	-68.733	93.886	N.4	6	LYS483	0.000	
41	   N	22.300	-59.713	90.414	N.am	7	GLU501	0.000	
42	  CA	22.476	-61.133	90.102	C.3	7	GLU501	0.000	
43	   C	22.239	-61.390	88.612	C.2	7	GLU501	0.000	
44	   O	23.068	-62.026	87.966	O.2	7	GLU501	0.000	
45	  CB	21.574	-62.022	90.964	C.3	7	GLU501	0.000	
46	  CG	21.684	-63.531	90.627	C.3	7	GLU501	0.000	
47	  CD	22.072	-64.396	91.809	C.2	7	GLU501	0.000	
48	 OE1	21.445	-64.273	92.885	O.co2	7	GLU501	0.000	
49	 OE2	23.007	-65.210	91.645	O.co2	7	GLU501	0.000	
50	   N	24.793	-63.356	86.156	N.am	8	LEU505	0.000	
51	  CA	24.404	-64.538	85.360	C.3	8	LEU505	0.000	
52	   C	24.508	-64.294	83.837	C.2	8	LEU505	0.000	
53	   O	24.922	-65.177	83.080	O.2	8	LEU505	0.000	
54	  CB	22.979	-64.982	85.719	C.3	8	LEU505	0.000	
55	  CG	22.643	-65.282	87.186	C.3	8	LEU505	0.000	
56	 CD1	21.203	-65.788	87.317	C.3	8	LEU505	0.000	
57	 CD2	23.627	-66.253	87.800	C.3	8	LEU505	0.000	
58	   N	27.868	-65.158	81.995	N.am	9	THR508	0.000	
59	  CA	28.342	-66.551	81.924	C.3	9	THR508	0.000	
60	   C	27.864	-67.279	80.660	C.2	9	THR508	0.000	
61	   O	26.656	-67.492	80.470	O.2	9	THR508	0.000	
62	  CB	27.938	-67.360	83.190	C.3	9	THR508	0.000	
63	 CG2	28.404	-66.640	84.450	C.3	9	THR508	0.000	
64	 OG1	26.516	-67.536	83.240	O.3	9	THR508	0.000	
65	   N	25.517	-73.820	84.501	N.am	10	LEU514	0.000	
66	  CA	24.077	-73.861	84.222	C.3	10	LEU514	0.000	
67	   C	23.671	-72.660	83.366	C.2	10	LEU514	0.000	
68	   O	23.964	-71.508	83.717	O.2	10	LEU514	0.000	
69	  CB	23.270	-73.880	85.528	C.3	10	LEU514	0.000	
70	  CG	21.777	-74.188	85.412	C.3	10	LEU514	0.000	
71	 CD1	21.553	-75.629	84.934	C.3	10	LEU514	0.000	
72	 CD2	21.103	-73.937	86.743	C.3	10	LEU514	0.000	
73	   N	23.027	-72.946	82.235	N.am	11	LEU515	0.000	
74	  CA	22.739	-71.930	81.229	C.3	11	LEU515	0.000	
75	   C	21.619	-71.016	81.696	C.2	11	LEU515	0.000	
76	   O	20.447	-71.416	81.732	O.2	11	LEU515	0.000	
77	  CB	22.387	-72.568	79.867	C.3	11	LEU515	0.000	
78	  CG	22.077	-71.609	78.698	C.3	11	LEU515	0.000	
79	 CD1	23.331	-70.850	78.266	C.3	11	LEU515	0.000	
80	 CD2	21.480	-72.348	77.519	C.3	11	LEU515	0.000	
81	   N	21.996	-69.791	82.065	N.am	12	PHE516	0.000	
82	  CA	21.042	-68.681	82.222	C.3	12	PHE516	0.000	
83	   C	20.352	-68.463	80.878	C.2	12	PHE516	0.000	
84	   O	21.018	-68.471	79.858	O.2	12	PHE516	0.000	
85	  CB	21.792	-67.414	82.665	C.3	12	PHE516	0.000	
86	  CG	20.976	-66.149	82.612	C.2	12	PHE516	0.000	
87	 CD1	19.965	-65.919	83.535	C.2	12	PHE516	0.000	
88	 CD2	21.250	-65.169	81.659	C.2	12	PHE516	0.000	
89	 CE1	19.214	-64.738	83.505	C.2	12	PHE516	0.000	
90	 CE2	20.510	-63.976	81.616	C.2	12	PHE516	0.000	
91	  CZ	19.489	-63.761	82.545	C.2	12	PHE516	0.000	
92	   N	13.923	-66.107	87.753	N.am	13	ILE527	0.000	
93	  CA	15.130	-66.375	86.956	C.3	13	ILE527	0.000	
94	   C	14.945	-67.679	86.184	C.2	13	ILE527	0.000	
95	   O	14.535	-68.685	86.756	O.2	13	ILE527	0.000	
96	  CB	16.370	-66.459	87.842	C.3	13	ILE527	0.000	
97	 CG1	16.579	-65.115	88.549	C.3	13	ILE527	0.000	
98	 CG2	17.601	-66.866	87.013	C.3	13	ILE527	0.000	
99	 CD1	17.869	-65.002	89.299	C.3	13	ILE527	0.000	
100	   N	15.232	-67.646	84.886	N.am	14	VAL528	0.000	
101	  CA	14.990	-68.783	84.000	C.3	14	VAL528	0.000	
102	   C	16.310	-69.405	83.550	C.2	14	VAL528	0.000	
103	   O	17.168	-68.705	83.017	O.2	14	VAL528	0.000	
104	  CB	14.167	-68.361	82.767	C.3	14	VAL528	0.000	
105	 CG1	13.955	-69.546	81.831	C.3	14	VAL528	0.000	
106	 CG2	12.828	-67.805	83.211	C.3	14	VAL528	0.000	
107	   N	16.454	-70.712	83.775	N.am	15	THR529	0.000	
108	  CA	17.597	-71.483	83.287	C.3	15	THR529	0.000	
109	   C	17.132	-72.667	82.452	C.2	15	THR529	0.000	
110	   O	15.950	-73.020	82.445	O.2	15	THR529	0.000	
111	  CB	18.463	-72.034	84.446	C.3	15	THR529	0.000	
112	 CG2	18.878	-70.919	85.410	C.3	15	THR529	0.000	
113	 OG1	17.736	-73.044	85.169	O.3	15	THR529	0.000	
114	   N	18.080	-73.287	81.760	N.am	16	GLN530	0.000	
115	  CA	17.854	-74.563	81.083	C.3	16	GLN530	0.000	
116	   C	17.331	-75.627	82.055	C.2	16	GLN530	0.000	
117	   O	17.631	-75.580	83.261	O.2	16	GLN530	0.000	
118	  CB	19.155	-75.080	80.448	C.3	16	GLN530	0.000	
119	  CG	20.264	-75.434	81.456	C.3	16	GLN530	0.000	
120	  CD	21.451	-76.142	80.835	C.2	16	GLN530	0.000	
121	 NE2	21.193	-77.215	80.116	N.pl3	16	GLN530	0.000	
122	 OE1	22.583	-75.733	81.017	O.2	16	GLN530	0.000	
123	   N	16.561	-76.574	81.521	N.am	17	TRP531	0.000	
124	  CA	16.145	-77.748	82.277	C.3	17	TRP531	0.000	
125	   C	17.136	-78.872	82.039	C.2	17	TRP531	0.000	
126	   O	17.324	-79.291	80.898	O.2	17	TRP531	0.000	
127	  CB	14.755	-78.212	81.858	C.3	17	TRP531	0.000	
128	  CG	14.337	-79.435	82.588	C.2	17	TRP531	0.000	
129	 CD1	14.336	-80.707	82.114	C.2	17	TRP531	0.000	
130	 CD2	13.903	-79.506	83.947	C.2	17	TRP531	0.000	
131	 CE2	13.633	-80.861	84.225	C.2	17	TRP531	0.000	
132	 CE3	13.715	-78.552	84.960	C.2	17	TRP531	0.000	
133	 NE1	13.903	-81.572	83.088	N.pl3	17	TRP531	0.000	
134	 CZ2	13.184	-81.296	85.471	C.2	17	TRP531	0.000	
135	 CZ3	13.262	-78.983	86.203	C.2	17	TRP531	0.000	
136	 CH2	13.002	-80.350	86.444	C.2	17	TRP531	0.000	
137	   N	17.744	-79.366	83.117	N.am	18	CYS532	0.000	
138	  CA	18.676	-80.495	83.056	C.3	18	CYS532	0.000	
139	   C	18.041	-81.791	83.561	C.2	18	CYS532	0.000	
140	   O	17.446	-81.820	84.624	O.2	18	CYS532	0.000	
141	  CB	19.915	-80.184	83.890	C.3	18	CYS532	0.000	
142	  SG	20.916	-78.887	83.180	S.3	18	CYS532	0.000	
143	   N	18.566	-85.363	85.213	N.am	19	GLY534	0.000	
144	  CA	19.549	-86.048	86.062	C.3	19	GLY534	0.000	
145	   C	19.489	-85.616	87.518	C.2	19	GLY534	0.000	
146	   O	18.434	-85.240	88.021	O.2	19	GLY534	0.000	
147	   N	20.635	-85.665	88.190	N.am	20	SER535	0.000	
148	  CA	20.736	-85.261	89.592	C.3	20	SER535	0.000	
149	   C	22.167	-84.842	89.962	C.2	20	SER535	0.000	
150	   O	23.105	-85.037	89.185	O.2	20	SER535	0.000	
151	  CB	20.212	-86.383	90.510	C.3	20	SER535	0.000	
152	  OG	20.698	-87.653	90.113	O.3	20	SER535	0.000	
153	   N	25.495	-80.110	89.270	N.am	21	PHE583	0.000	
154	  CA	24.498	-80.976	88.640	C.3	21	PHE583	0.000	
155	   C	25.161	-81.825	87.554	C.2	21	PHE583	0.000	
156	   O	25.902	-81.285	86.731	O.2	21	PHE583	0.000	
157	  CB	23.382	-80.126	88.017	C.3	21	PHE583	0.000	
158	  CG	22.090	-80.860	87.832	C.2	21	PHE583	0.000	
159	 CD1	21.904	-81.711	86.740	C.2	21	PHE583	0.000	
160	 CD2	21.054	-80.716	88.755	C.2	21	PHE583	0.000	
161	 CE1	20.691	-82.398	86.558	C.2	21	PHE583	0.000	
162	 CE2	19.852	-81.401	88.590	C.2	21	PHE583	0.000	
163	  CZ	19.670	-82.244	87.485	C.2	21	PHE583	0.000	
164	   N	25.955	-74.564	89.300	N.am	22	GLY593	0.000	
165	  CA	24.918	-73.591	89.610	C.3	22	GLY593	0.000	
166	   C	24.901	-73.293	91.095	C.2	22	GLY593	0.000	
167	   O	25.911	-73.467	91.781	O.2	22	GLY593	0.000	
168	   N	23.758	-72.813	91.575	N.am	23	ASP594	0.000	
169	  CA	23.537	-72.544	92.994	C.3	23	ASP594	0.000	
170	   C	22.111	-72.979	93.300	C.2	23	ASP594	0.000	
171	   O	21.161	-72.226	93.096	O.2	23	ASP594	0.000	
172	  CB	23.764	-71.057	93.309	C.3	23	ASP594	0.000	
173	  CG	23.997	-70.798	94.798	C.2	23	ASP594	0.000	
174	 OD1	25.009	-70.127	95.134	O.co2	23	ASP594	0.000	
175	 OD2	23.180	-71.269	95.629	O.co2	23	ASP594	0.000	
176	   N	21.972	-74.209	93.781	N.am	24	PHE595	0.000	
177	  CA	20.672	-74.870	93.856	C.3	24	PHE595	0.000	
178	   C	20.004	-74.685	95.222	C.2	24	PHE595	0.000	
179	   O	18.977	-75.306	95.497	O.2	24	PHE595	0.000	
180	  CB	20.822	-76.358	93.475	C.3	24	PHE595	0.000	
181	  CG	21.211	-76.577	92.030	C.2	24	PHE595	0.000	
182	 CD1	22.511	-76.342	91.596	C.2	24	PHE595	0.000	
183	 CD2	20.277	-77.017	91.102	C.2	24	PHE595	0.000	
184	 CE1	22.877	-76.534	90.256	C.2	24	PHE595	0.000	
185	 CE2	20.625	-77.213	89.758	C.2	24	PHE595	0.000	
186	  CZ	21.927	-76.966	89.334	C.2	24	PHE595	0.000	
187	   N	20.567	-73.816	96.063	N.am	25	GLY596	0.000	
188	  CA	20.008	-73.522	97.381	C.3	25	GLY596	0.000	
189	   C	18.798	-72.610	97.288	C.2	25	GLY596	0.000	
190	   O	18.808	-71.646	96.519	O.2	25	GLY596	0.000	
191	   N	17.753	-72.926	98.059	N.am	26	LEU597	0.000	
192	  CA	16.544	-72.091	98.146	C.3	26	LEU597	0.000	
193	   C	16.254	-71.604	99.575	C.2	26	LEU597	0.000	
194	   O	15.192	-71.034	99.830	O.2	26	LEU597	0.000	
195	  CB	15.334	-72.863	97.606	C.3	26	LEU597	0.000	
196	  CG	15.449	-73.441	96.197	C.3	26	LEU597	0.000	
197	 CD1	14.194	-74.200	95.848	C.3	26	LEU597	0.000	
198	 CD2	15.713	-72.346	95.179	C.3	26	LEU597	0.000	
199	   N	21.583	-65.290	98.411	N.am	27	LYS601	0.000	
200	  CA	23.005	-65.533	98.190	C.3	27	LYS601	0.000	
201	   C	23.832	-64.441	98.868	C.2	27	LYS601	0.000	
202	   O	23.583	-63.249	98.661	O.2	27	LYS601	0.000	
203	  CB	23.325	-65.615	96.697	C.3	27	LYS601	0.000	
204	  CG	22.700	-66.826	96.024	C.3	27	LYS601	0.000	
205	  CD	23.007	-66.878	94.542	C.3	27	LYS601	0.000	
206	  CE	22.033	-67.793	93.812	C.3	27	LYS601	0.000	
207	  NZ	22.321	-67.880	92.354	N.4	27	LYS601	0.000	
@<TRIPOS>BOND
1 1 2 1
2 2 3 1
3 2 5 1
4 3 4 2
5 3 9 1
6 5 6 1
7 5 7 1
8 6 8 1
9 9 10 1
10 10 11 1
11 11 12 2
12 13 14 1
13 14 15 1
14 14 17 1
15 15 16 2
16 17 18 1
17 17 19 1
18 20 21 1
19 21 22 1
20 21 24 1
21 22 23 2
22 22 25 1
23 25 26 1
24 26 27 1
25 26 29 1
26 27 28 2
27 27 32 1
28 29 30 1
29 29 31 1
30 32 33 1
31 33 34 1
32 33 36 1
33 34 35 2
34 36 37 1
35 37 38 1
36 38 39 1
37 39 40 1
38 41 42 1
39 42 43 1
40 42 45 1
41 43 44 2
42 45 46 1
43 46 47 1
44 47 48 2
45 47 49 1
46 50 51 1
47 51 52 1
48 51 54 1
49 52 53 2
50 54 55 1
51 55 56 1
52 55 57 1
53 58 59 1
54 59 60 1
55 59 62 1
56 60 61 2
57 62 63 1
58 62 64 1
59 65 66 1
60 66 67 1
61 66 69 1
62 67 68 2
63 67 73 1
64 69 70 1
65 70 71 1
66 70 72 1
67 73 74 1
68 74 75 1
69 74 77 1
70 75 76 2
71 75 81 1
72 77 78 1
73 78 79 1
74 78 80 1
75 81 82 1
76 82 83 1
77 82 85 1
78 83 84 2
79 85 86 1
80 86 87 2
81 86 88 1
82 87 89 1
83 88 90 2
84 89 91 2
85 90 91 1
86 92 93 1
87 93 94 1
88 93 96 1
89 94 95 2
90 94 100 1
91 96 97 1
92 96 98 1
93 97 99 1
94 100 101 1
95 101 102 1
96 101 104 1
97 102 103 2
98 102 107 1
99 104 105 1
100 104 106 1
101 107 108 1
102 108 109 1
103 108 111 1
104 109 110 2
105 109 114 1
106 111 112 1
107 111 113 1
108 114 115 1
109 115 116 1
110 115 118 1
111 116 117 2
112 116 123 1
113 118 119 1
114 119 120 1
115 120 121 1
116 120 122 2
117 123 124 1
118 124 125 1
119 124 127 1
120 125 126 2
121 125 137 1
122 127 128 1
123 128 129 2
124 128 130 1
125 129 133 1
126 130 131 2
127 130 132 1
128 131 134 1
129 132 135 2
130 131 133 1
131 134 136 2
132 135 136 1
133 137 138 1
134 138 139 1
135 138 141 1
136 139 140 2
137 141 142 1
138 143 144 1
139 144 145 1
140 145 146 2
141 145 147 1
142 147 148 1
143 148 149 1
144 148 151 1
145 149 150 2
146 151 152 1
147 153 154 1
148 154 155 1
149 154 157 1
150 155 156 2
151 157 158 1
152 158 159 2
153 158 160 1
154 159 161 1
155 160 162 2
156 161 163 2
157 162 163 1
158 164 165 1
159 165 166 1
160 166 167 2
161 166 168 1
162 168 169 1
163 169 170 1
164 169 172 1
165 170 171 2
166 170 176 1
167 172 173 1
168 173 174 2
169 173 175 1
170 176 177 1
171 177 178 1
172 177 180 1
173 178 179 2
174 178 187 1
175 180 181 1
176 181 182 2
177 181 183 1
178 182 184 1
179 183 185 2
180 184 186 2
181 185 186 1
182 187 188 1
183 188 189 1
184 189 190 2
185 189 191 1
186 191 192 1
187 192 193 1
188 192 195 1
189 193 194 2
190 195 196 1
191 196 197 1
192 196 198 1
193 199 200 1
194 200 201 1
195 200 203 1
196 201 202 2
197 203 204 1
198 204 205 1
199 205 206 1
200 206 207 1
@<TRIPOS>SUBSTRUCTURE
1	ILE463	1	RESIDUE	1 B	ILE
2	GLY464	9	RESIDUE	1 B	GLY
3	VAL471	13	RESIDUE	1 B	VAL
4	ALA481	20	RESIDUE	1 B	ALA
5	VAL482	25	RESIDUE	1 B	VAL
6	LYS483	32	RESIDUE	1 B	LYS
7	GLU501	41	RESIDUE	1 B	GLU
8	LEU505	50	RESIDUE	1 B	LEU
9	THR508	58	RESIDUE	1 B	THR
10	LEU514	65	RESIDUE	1 B	LEU
11	LEU515	73	RESIDUE	1 B	LEU
12	PHE516	81	RESIDUE	1 B	PHE
13	ILE527	92	RESIDUE	1 B	ILE
14	VAL528	100	RESIDUE	1 B	VAL
15	THR529	107	RESIDUE	1 B	THR
16	GLN530	114	RESIDUE	1 B	GLN
17	TRP531	123	RESIDUE	1 B	TRP
18	CYS532	137	RESIDUE	1 B	CYS
19	GLY534	143	RESIDUE	1 B	GLY
20	SER535	147	RESIDUE	1 B	SER
21	PHE583	153	RESIDUE	1 B	PHE
22	GLY593	164	RESIDUE	1 B	GLY
23	ASP594	168	RESIDUE	1 B	ASP
24	PHE595	176	RESIDUE	1 B	PHE
25	GLY596	187	RESIDUE	1 B	GLY
26	LEU597	191	RESIDUE	1 B	LEU
27	LYS601	199	RESIDUE	1 B	LYS
