# created with PyMOL 2.5.2
@<TRIPOS>MOLECULE
BTK_4OTR_TargetProtein
204 193 27              
SMALL
USER_CHARGES
@<TRIPOS>ATOM
1	   N	26.775	-4.518	-0.988	N.am	1	LYS406	0.000	
2	  CA	27.789	-3.549	-1.400	C.3	1	LYS406	0.000	
3	   C	27.963	-2.403	-0.377	C.2	1	LYS406	0.000	
4	   O	27.048	-2.071	0.362	O.2	1	LYS406	0.000	
5	  CB	27.523	-3.005	-2.833	C.3	1	LYS406	0.000	
6	  CG	26.442	-1.935	-3.035	C.3	1	LYS406	0.000	
7	  CD	26.639	-1.214	-4.392	C.3	1	LYS406	0.000	
8	  CE	25.865	0.107	-4.552	C.3	1	LYS406	0.000	
9	  NZ	24.411	-0.056	-4.862	N.4	1	LYS406	0.000	
10	   N	28.332	1.508	0.697	N.am	2	LEU408	0.000	
11	  CA	27.786	2.747	0.206	C.3	2	LEU408	0.000	
12	   C	28.695	3.894	0.611	C.2	2	LEU408	0.000	
13	   O	28.788	4.881	-0.093	O.2	2	LEU408	0.000	
14	  CB	26.356	2.960	0.693	C.3	2	LEU408	0.000	
15	  CG	25.341	1.997	0.097	C.3	2	LEU408	0.000	
16	 CD1	24.008	2.269	0.777	C.3	2	LEU408	0.000	
17	 CD2	25.257	2.094	-1.433	C.3	2	LEU408	0.000	
18	   N	29.400	3.731	1.714	N.am	3	GLY409	0.000	
19	  CA	30.304	4.768	2.210	C.3	3	GLY409	0.000	
20	   C	30.427	4.705	3.709	C.2	3	GLY409	0.000	
21	   O	30.023	3.705	4.307	O.2	3	GLY409	0.000	
22	   N	30.970	5.782	4.280	N.am	4	THR410	0.000	
23	  CA	31.217	5.951	5.696	C.3	4	THR410	0.000	
24	   C	30.602	7.280	6.145	C.2	4	THR410	0.000	
25	   O	30.711	8.285	5.459	O.2	4	THR410	0.000	
26	  CB	32.722	5.937	5.956	C.3	4	THR410	0.000	
27	 CG2	33.057	6.174	7.415	C.3	4	THR410	0.000	
28	 OG1	33.245	4.664	5.565	O.3	4	THR410	0.000	
29	   N	29.879	7.247	7.262	N.am	5	GLY411	0.000	
30	  CA	29.237	8.395	7.840	C.3	5	GLY411	0.000	
31	   C	29.754	8.553	9.242	C.2	5	GLY411	0.000	
32	   O	30.772	7.968	9.607	O.2	5	GLY411	0.000	
33	   N	29.043	9.341	10.020	N.am	6	GLN412	0.000	
34	  CA	29.403	9.613	11.406	C.3	6	GLN412	0.000	
35	   C	29.404	8.360	12.313	C.2	6	GLN412	0.000	
36	   O	30.040	8.349	13.356	O.2	6	GLN412	0.000	
37	  CB	28.468	10.705	11.967	C.3	6	GLN412	0.000	
38	  CG	28.876	11.369	13.293	C.3	6	GLN412	0.000	
39	  CD	30.322	11.828	13.388	C.2	6	GLN412	0.000	
40	 NE2	30.799	12.521	12.351	N.pl3	6	GLN412	0.000	
41	 OE1	31.016	11.537	14.352	O.2	6	GLN412	0.000	
42	   N	28.708	7.300	11.903	N.am	7	PHE413	0.000	
43	  CA	28.710	6.094	12.715	C.3	7	PHE413	0.000	
44	   C	29.465	4.934	12.072	C.2	7	PHE413	0.000	
45	   O	29.324	3.822	12.526	O.2	7	PHE413	0.000	
46	  CB	27.266	5.699	13.037	C.3	7	PHE413	0.000	
47	  CG	26.556	6.701	13.893	C.2	7	PHE413	0.000	
48	 CD1	25.399	7.323	13.433	C.2	7	PHE413	0.000	
49	 CD2	27.073	7.076	15.158	C.2	7	PHE413	0.000	
50	 CE1	24.740	8.263	14.244	C.2	7	PHE413	0.000	
51	 CE2	26.415	8.005	15.953	C.2	7	PHE413	0.000	
52	  CZ	25.256	8.603	15.492	C.2	7	PHE413	0.000	
53	   N	28.309	2.051	5.950	N.am	8	VAL416	0.000	
54	  CA	26.897	1.865	5.606	C.3	8	VAL416	0.000	
55	   C	26.885	1.027	4.351	C.2	8	VAL416	0.000	
56	   O	27.630	1.291	3.346	O.2	8	VAL416	0.000	
57	  CB	26.093	3.185	5.384	C.3	8	VAL416	0.000	
58	 CG1	24.639	2.913	4.983	C.3	8	VAL416	0.000	
59	 CG2	26.105	4.087	6.595	C.3	8	VAL416	0.000	
60	   N	19.363	0.310	3.137	N.am	9	ALA428	0.000	
61	  CA	20.683	0.722	3.584	C.3	9	ALA428	0.000	
62	   C	20.810	0.182	5.009	C.2	9	ALA428	0.000	
63	   O	19.840	0.166	5.756	O.2	9	ALA428	0.000	
64	  CB	20.812	2.243	3.559	C.3	9	ALA428	0.000	
65	   N	23.206	0.668	8.356	N.am	10	LYS430	0.000	
66	  CA	24.327	1.269	9.074	C.3	10	LYS430	0.000	
67	   C	24.919	0.187	9.975	C.2	10	LYS430	0.000	
68	   O	24.180	-0.506	10.692	O.2	10	LYS430	0.000	
69	  CB	23.889	2.452	9.942	C.3	10	LYS430	0.000	
70	  CG	23.205	3.596	9.218	C.3	10	LYS430	0.000	
71	  CD	23.138	4.807	10.157	C.3	10	LYS430	0.000	
72	  CE	22.137	5.854	9.695	C.3	10	LYS430	0.000	
73	  NZ	22.563	6.426	8.342	N.4	10	LYS430	0.000	
74	   N	13.754	9.921	4.956	N.am	11	VAL458	0.000	
75	  CA	14.354	8.589	4.757	C.3	11	VAL458	0.000	
76	   C	13.903	7.700	5.924	C.2	11	VAL458	0.000	
77	   O	14.365	7.885	7.052	O.2	11	VAL458	0.000	
78	  CB	15.891	8.608	4.700	C.3	11	VAL458	0.000	
79	 CG1	16.459	7.199	4.590	C.3	11	VAL458	0.000	
80	 CG2	16.400	9.487	3.556	C.3	11	VAL458	0.000	
81	   N	17.433	1.168	7.090	N.am	12	THR474	0.000	
82	  CA	16.592	2.247	6.521	C.3	12	THR474	0.000	
83	   C	16.206	1.979	5.078	C.2	12	THR474	0.000	
84	   O	16.731	1.053	4.443	O.2	12	THR474	0.000	
85	  CB	17.277	3.634	6.571	C.3	12	THR474	0.000	
86	 CG2	17.816	3.933	7.994	C.3	12	THR474	0.000	
87	 OG1	18.368	3.670	5.628	O.3	12	THR474	0.000	
88	   N	15.225	2.750	4.608	N.am	13	GLU475	0.000	
89	  CA	14.950	2.964	3.187	C.3	13	GLU475	0.000	
90	   C	16.273	3.214	2.413	C.2	13	GLU475	0.000	
91	   O	17.178	3.939	2.886	O.2	13	GLU475	0.000	
92	  CB	14.090	4.228	3.089	C.3	13	GLU475	0.000	
93	  CG	13.725	4.655	1.692	C.3	13	GLU475	0.000	
94	  CD	12.636	5.690	1.670	C.2	13	GLU475	0.000	
95	 OE1	12.098	5.949	0.580	O.co2	13	GLU475	0.000	
96	 OE2	12.282	6.226	2.732	O.co2	13	GLU475	0.000	
97	   N	16.346	2.654	1.215	N.am	14	TYR476	0.000	
98	  CA	17.512	2.817	0.321	C.3	14	TYR476	0.000	
99	   C	17.242	3.880	-0.761	C.2	14	TYR476	0.000	
100	   O	16.154	3.914	-1.364	O.2	14	TYR476	0.000	
101	  CB	17.859	1.478	-0.328	C.3	14	TYR476	0.000	
102	  CG	18.889	1.570	-1.437	C.2	14	TYR476	0.000	
103	 CD1	20.206	1.879	-1.122	C.2	14	TYR476	0.000	
104	 CD2	18.552	1.339	-2.807	C.2	14	TYR476	0.000	
105	 CE1	21.170	1.967	-2.096	C.2	14	TYR476	0.000	
106	 CE2	19.522	1.423	-3.808	C.2	14	TYR476	0.000	
107	  CZ	20.834	1.743	-3.419	C.2	14	TYR476	0.000	
108	  OH	21.877	1.865	-4.284	O.3	14	TYR476	0.000	
109	   N	18.226	4.760	-0.959	N.am	15	MET477	0.000	
110	  CA	18.108	5.910	-1.863	C.3	15	MET477	0.000	
111	   C	19.174	5.761	-2.952	C.2	15	MET477	0.000	
112	   O	20.357	6.012	-2.721	O.2	15	MET477	0.000	
113	  CB	18.273	7.228	-1.087	C.3	15	MET477	0.000	
114	  CG	17.296	7.363	0.096	C.3	15	MET477	0.000	
115	  SD	15.612	7.734	-0.427	S.3	15	MET477	0.000	
116	  CE	15.896	9.431	-0.973	C.3	15	MET477	0.000	
117	   N	18.737	5.310	-4.127	N.am	16	ALA478	0.000	
118	  CA	19.626	4.912	-5.216	C.3	16	ALA478	0.000	
119	   C	20.681	5.943	-5.655	C.2	16	ALA478	0.000	
120	   O	21.833	5.573	-5.983	O.2	16	ALA478	0.000	
121	  CB	18.795	4.461	-6.429	C.3	16	ALA478	0.000	
122	   N	20.301	7.222	-5.684	N.am	17	ASN479	0.000	
123	  CA	21.170	8.227	-6.311	C.3	17	ASN479	0.000	
124	   C	22.021	8.913	-5.286	C.2	17	ASN479	0.000	
125	   O	22.748	9.837	-5.586	O.2	17	ASN479	0.000	
126	  CB	20.342	9.212	-7.116	C.3	17	ASN479	0.000	
127	  CG	19.793	8.563	-8.374	C.2	17	ASN479	0.000	
128	 ND2	18.554	8.847	-8.738	N.pl3	17	ASN479	0.000	
129	 OD1	20.483	7.758	-8.966	O.2	17	ASN479	0.000	
130	   N	21.867	8.463	-4.048	N.am	18	GLY480	0.000	
131	  CA	22.677	8.917	-2.927	C.3	18	GLY480	0.000	
132	   C	22.434	10.341	-2.531	C.2	18	GLY480	0.000	
133	   O	21.338	10.912	-2.621	O.2	18	GLY480	0.000	
134	   N	21.131	18.838	12.097	N.am	19	ASP521	0.000	
135	  CA	22.205	18.846	11.099	C.3	19	ASP521	0.000	
136	   C	21.674	18.879	9.641	C.2	19	ASP521	0.000	
137	   O	22.062	18.038	8.789	O.2	19	ASP521	0.000	
138	  CB	23.137	17.680	11.374	C.3	19	ASP521	0.000	
139	  CG	24.460	17.790	10.620	C.2	19	ASP521	0.000	
140	 OD1	24.677	18.772	9.890	O.co2	19	ASP521	0.000	
141	 OD2	25.272	16.844	10.704	O.co2	19	ASP521	0.000	
142	   N	23.161	15.892	4.083	N.am	20	ASN526	0.000	
143	  CA	22.252	15.001	4.870	C.3	20	ASN526	0.000	
144	   C	20.867	14.810	4.270	C.2	20	ASN526	0.000	
145	   O	19.873	14.539	4.974	O.2	20	ASN526	0.000	
146	  CB	22.174	15.459	6.319	C.3	20	ASN526	0.000	
147	  CG	23.478	15.215	7.048	C.2	20	ASN526	0.000	
148	 ND2	23.842	16.114	7.988	N.pl3	20	ASN526	0.000	
149	 OD1	24.157	14.219	6.757	O.2	20	ASN526	0.000	
150	   N	19.172	12.741	0.757	N.am	21	LEU528	0.000	
151	  CA	19.463	11.730	-0.236	C.3	21	LEU528	0.000	
152	   C	18.458	11.812	-1.395	C.2	21	LEU528	0.000	
153	   O	17.369	12.398	-1.285	O.2	21	LEU528	0.000	
154	  CB	19.451	10.316	0.425	C.3	21	LEU528	0.000	
155	  CG	20.445	10.033	1.563	C.3	21	LEU528	0.000	
156	 CD1	20.048	8.774	2.309	C.3	21	LEU528	0.000	
157	 CD2	21.860	9.864	0.983	C.3	21	LEU528	0.000	
158	   N	17.531	12.906	5.603	N.am	22	SER538	0.000	
159	  CA	18.146	11.743	6.209	C.3	22	SER538	0.000	
160	   C	18.794	12.078	7.569	C.2	22	SER538	0.000	
161	   O	19.257	13.196	7.752	O.2	22	SER538	0.000	
162	  CB	19.204	11.158	5.247	C.3	22	SER538	0.000	
163	  OG	19.892	10.051	5.857	O.3	22	SER538	0.000	
164	   N	18.831	11.088	8.484	N.am	23	ASP539	0.000	
165	  CA	19.637	11.132	9.728	C.3	23	ASP539	0.000	
166	   C	19.189	12.239	10.702	C.2	23	ASP539	0.000	
167	   O	19.943	12.689	11.560	O.2	23	ASP539	0.000	
168	  CB	21.166	11.152	9.404	C.3	23	ASP539	0.000	
169	  CG	21.605	9.897	8.632	C.2	23	ASP539	0.000	
170	 OD1	22.284	10.000	7.619	O.co2	23	ASP539	0.000	
171	 OD2	21.203	8.774	8.994	O.co2	23	ASP539	0.000	
172	   N	19.745	12.049	14.830	N.am	24	LEU542	0.000	
173	  CA	20.826	11.130	15.260	C.3	24	LEU542	0.000	
174	   C	22.051	11.836	15.811	C.2	24	LEU542	0.000	
175	   O	22.916	11.180	16.372	O.2	24	LEU542	0.000	
176	  CB	21.285	10.205	14.114	C.3	24	LEU542	0.000	
177	  CG	20.216	9.194	13.692	C.3	24	LEU542	0.000	
178	 CD1	20.635	8.487	12.439	C.3	24	LEU542	0.000	
179	 CD2	19.955	8.134	14.762	C.3	24	LEU542	0.000	
180	   N	22.142	13.158	15.614	N.am	25	SER543	0.000	
181	  CA	23.268	13.991	16.116	C.3	25	SER543	0.000	
182	   C	23.414	13.875	17.646	C.2	25	SER543	0.000	
183	   O	24.529	13.951	18.193	O.2	25	SER543	0.000	
184	  CB	23.079	15.452	15.715	C.3	25	SER543	0.000	
185	  OG	21.968	15.999	16.448	O.3	25	SER543	0.000	
186	   N	25.925	11.040	18.877	N.am	26	VAL546	0.000	
187	  CA	27.306	11.084	18.396	C.3	26	VAL546	0.000	
188	   C	28.284	11.337	19.565	C.2	26	VAL546	0.000	
189	   O	28.115	12.307	20.316	O.2	26	VAL546	0.000	
190	  CB	27.480	12.166	17.336	C.3	26	VAL546	0.000	
191	 CG1	28.943	12.337	16.964	C.3	26	VAL546	0.000	
192	 CG2	26.651	11.809	16.107	C.3	26	VAL546	0.000	
193	   N	32.624	16.640	16.313	N.am	27	TYR551	0.000	
194	  CA	31.303	16.835	15.719	C.3	27	TYR551	0.000	
195	   C	30.304	17.607	16.570	C.2	27	TYR551	0.000	
196	   O	29.570	18.432	16.036	O.2	27	TYR551	0.000	
197	  CB	30.699	15.519	15.278	C.3	27	TYR551	0.000	
198	  CG	29.291	15.625	14.719	C.2	27	TYR551	0.000	
199	 CD1	29.075	15.912	13.355	C.2	27	TYR551	0.000	
200	 CD2	28.160	15.431	15.545	C.2	27	TYR551	0.000	
201	 CE1	27.783	15.980	12.825	C.2	27	TYR551	0.000	
202	 CE2	26.879	15.500	15.015	C.2	27	TYR551	0.000	
203	  CZ	26.699	15.780	13.659	C.2	27	TYR551	0.000	
204	  OH	25.426	15.828	13.141	O.3	27	TYR551	0.000	
@<TRIPOS>BOND
1 1 2 1
2 2 3 1
3 2 5 1
4 3 4 2
5 5 6 1
6 6 7 1
7 7 8 1
8 8 9 1
9 10 11 1
10 11 12 1
11 11 14 1
12 12 13 2
13 12 18 1
14 14 15 1
15 15 16 1
16 15 17 1
17 18 19 1
18 19 20 1
19 20 21 2
20 20 22 1
21 22 23 1
22 23 24 1
23 23 26 1
24 24 25 2
25 24 29 1
26 26 27 1
27 26 28 1
28 29 30 1
29 30 31 1
30 31 32 2
31 31 33 1
32 33 34 1
33 34 35 1
34 34 37 1
35 35 36 2
36 35 42 1
37 37 38 1
38 38 39 1
39 39 40 1
40 39 41 2
41 42 43 1
42 43 44 1
43 43 46 1
44 44 45 2
45 46 47 1
46 47 48 2
47 47 49 1
48 48 50 1
49 49 51 2
50 50 52 2
51 51 52 1
52 53 54 1
53 54 55 1
54 54 57 1
55 55 56 2
56 57 58 1
57 57 59 1
58 60 61 1
59 61 62 1
60 61 64 1
61 62 63 2
62 65 66 1
63 66 67 1
64 66 69 1
65 67 68 2
66 69 70 1
67 70 71 1
68 71 72 1
69 72 73 1
70 74 75 1
71 75 76 1
72 75 78 1
73 76 77 2
74 78 79 1
75 78 80 1
76 81 82 1
77 82 83 1
78 82 85 1
79 83 84 2
80 83 88 1
81 85 86 1
82 85 87 1
83 88 89 1
84 89 90 1
85 89 92 1
86 90 91 2
87 90 97 1
88 92 93 1
89 93 94 1
90 94 95 2
91 94 96 1
92 97 98 1
93 98 99 1
94 98 101 1
95 99 100 2
96 99 109 1
97 101 102 1
98 102 103 2
99 102 104 1
100 103 105 1
101 104 106 2
102 105 107 2
103 106 107 1
104 107 108 1
105 109 110 1
106 110 111 1
107 110 113 1
108 111 112 2
109 111 117 1
110 113 114 1
111 114 115 1
112 115 116 1
113 117 118 1
114 118 119 1
115 118 121 1
116 119 120 2
117 119 122 1
118 122 123 1
119 123 124 1
120 123 126 1
121 124 125 2
122 124 130 1
123 126 127 1
124 127 128 1
125 127 129 2
126 130 131 1
127 131 132 1
128 132 133 2
129 134 135 1
130 135 136 1
131 135 138 1
132 136 137 2
133 138 139 1
134 139 140 2
135 139 141 1
136 142 143 1
137 143 144 1
138 143 146 1
139 144 145 2
140 146 147 1
141 147 148 1
142 147 149 2
143 150 151 1
144 151 152 1
145 151 154 1
146 152 153 2
147 154 155 1
148 155 156 1
149 155 157 1
150 158 159 1
151 159 160 1
152 159 162 1
153 160 161 2
154 160 164 1
155 162 163 1
156 164 165 1
157 165 166 1
158 165 168 1
159 166 167 2
160 168 169 1
161 169 170 2
162 169 171 1
163 172 173 1
164 173 174 1
165 173 176 1
166 174 175 2
167 174 180 1
168 176 177 1
169 177 178 1
170 177 179 1
171 180 181 1
172 181 182 1
173 181 184 1
174 182 183 2
175 184 185 1
176 186 187 1
177 187 188 1
178 187 190 1
179 188 189 2
180 190 191 1
181 190 192 1
182 193 194 1
183 194 195 1
184 194 197 1
185 195 196 2
186 197 198 1
187 198 199 2
188 198 200 1
189 199 201 1
190 200 202 2
191 201 203 2
192 202 203 1
193 203 204 1
@<TRIPOS>SUBSTRUCTURE
1	LYS406	1	RESIDUE	1 B	LYS
2	LEU408	10	RESIDUE	1 B	LEU
3	GLY409	18	RESIDUE	1 B	GLY
4	THR410	22	RESIDUE	1 B	THR
5	GLY411	29	RESIDUE	1 B	GLY
6	GLN412	33	RESIDUE	1 B	GLN
7	PHE413	42	RESIDUE	1 B	PHE
8	VAL416	53	RESIDUE	1 B	VAL
9	ALA428	60	RESIDUE	1 B	ALA
10	LYS430	65	RESIDUE	1 B	LYS
11	VAL458	74	RESIDUE	1 B	VAL
12	THR474	81	RESIDUE	1 B	THR
13	GLU475	88	RESIDUE	1 B	GLU
14	TYR476	97	RESIDUE	1 B	TYR
15	MET477	109	RESIDUE	1 B	MET
16	ALA478	117	RESIDUE	1 B	ALA
17	ASN479	122	RESIDUE	1 B	ASN
18	GLY480	130	RESIDUE	1 B	GLY
19	ASP521	134	RESIDUE	1 B	ASP
20	ASN526	142	RESIDUE	1 B	ASN
21	LEU528	150	RESIDUE	1 B	LEU
22	SER538	158	RESIDUE	1 B	SER
23	ASP539	164	RESIDUE	1 B	ASP
24	LEU542	172	RESIDUE	1 B	LEU
25	SER543	180	RESIDUE	1 B	SER
26	VAL546	186	RESIDUE	1 B	VAL
27	TYR551	193	RESIDUE	1 B	TYR
