# created with PyMOL 2.5.2
@<TRIPOS>MOLECULE
PARP1_3GN7_TargetProtein
134 133 15              
SMALL
USER_CHARGES
@<TRIPOS>ATOM
1	   N	18.920	62.095	-3.219	N.am	1	GLN98	0.000	
2	  CA	19.533	62.604	-1.996	C.3	1	GLN98	0.000	
3	   C	18.994	63.990	-1.619	C.2	1	GLN98	0.000	
4	   O	18.752	64.279	-0.446	O.2	1	GLN98	0.000	
5	  CB	21.050	62.678	-2.142	C.3	1	GLN98	0.000	
6	  CG	21.699	63.492	-1.037	C.3	1	GLN98	0.000	
7	  CD	23.188	63.270	-0.949	C.2	1	GLN98	0.000	
8	 NE2	23.819	63.869	0.056	N.pl3	1	GLN98	0.000	
9	 OE1	23.767	62.562	-1.773	O.2	1	GLN98	0.000	
10	   N	16.516	64.771	1.717	N.am	2	GLU102	0.000	
11	  CA	16.993	65.766	2.664	C.3	2	GLU102	0.000	
12	   C	15.866	66.743	2.912	C.2	2	GLU102	0.000	
13	   O	15.669	67.213	4.034	O.2	2	GLU102	0.000	
14	  CB	18.210	66.502	2.097	C.3	2	GLU102	0.000	
15	  CG	19.513	66.283	2.881	C.3	2	GLU102	0.000	
16	  CD	20.743	66.161	1.986	C.2	2	GLU102	0.000	
17	 OE1	21.602	65.296	2.268	O.co2	2	GLU102	0.000	
18	 OE2	20.853	66.930	1.005	O.co2	2	GLU102	0.000	
19	   N	30.025	68.032	17.552	N.am	3	TRP200	0.000	
20	  CA	29.117	68.951	16.890	C.3	3	TRP200	0.000	
21	   C	28.021	68.267	16.088	C.2	3	TRP200	0.000	
22	   O	28.201	67.176	15.552	O.2	3	TRP200	0.000	
23	  CB	29.903	69.839	15.925	C.3	3	TRP200	0.000	
24	  CG	30.914	70.733	16.578	C.2	3	TRP200	0.000	
25	 CD1	32.272	70.582	16.569	C.2	3	TRP200	0.000	
26	 CD2	30.646	71.940	17.309	C.2	3	TRP200	0.000	
27	 CE2	31.891	72.478	17.698	C.2	3	TRP200	0.000	
28	 CE3	29.475	72.621	17.661	C.2	3	TRP200	0.000	
29	 NE1	32.868	71.635	17.230	N.pl3	3	TRP200	0.000	
30	 CZ2	32.001	73.659	18.435	C.2	3	TRP200	0.000	
31	 CZ3	29.583	73.798	18.389	C.2	3	TRP200	0.000	
32	 CH2	30.841	74.311	18.760	C.2	3	TRP200	0.000	
33	   N	26.894	68.960	15.971	N.am	4	HIS201	0.000	
34	  CA	25.791	68.524	15.132	C.3	4	HIS201	0.000	
35	   C	25.042	69.748	14.649	C.2	4	HIS201	0.000	
36	   O	24.446	70.474	15.443	O.2	4	HIS201	0.000	
37	  CB	24.851	67.553	15.824	C.3	4	HIS201	0.000	
38	  CG	23.872	66.911	14.886	C.2	4	HIS201	0.000	
39	 CD2	23.884	65.705	14.272	C.2	4	HIS201	0.000	
40	 ND1	22.746	67.561	14.422	N.pl3	4	HIS201	0.000	
41	 CE1	22.102	66.780	13.577	C.2	4	HIS201	0.000	
42	 NE2	22.773	65.648	13.465	N.pl3	4	HIS201	0.000	
43	   N	25.164	70.030	13.354	N.am	5	GLY202	0.000	
44	  CA	24.502	71.166	12.754	C.3	5	GLY202	0.000	
45	   C	23.250	70.690	12.039	C.2	5	GLY202	0.000	
46	   O	23.212	69.574	11.515	O.2	5	GLY202	0.000	
47	   N	23.022	58.939	0.554	N.am	6	GLY227	0.000	
48	  CA	23.223	60.150	1.329	C.3	6	GLY227	0.000	
49	   C	23.791	59.891	2.709	C.2	6	GLY227	0.000	
50	   O	24.440	60.766	3.293	O.2	6	GLY227	0.000	
51	   N	23.545	58.696	3.238	N.am	7	TYR228	0.000	
52	  CA	24.116	58.312	4.522	C.3	7	TYR228	0.000	
53	   C	25.343	57.433	4.248	C.2	7	TYR228	0.000	
54	   O	25.241	56.200	4.263	O.2	7	TYR228	0.000	
55	  CB	23.114	57.523	5.364	C.3	7	TYR228	0.000	
56	  CG	21.903	58.304	5.772	C.2	7	TYR228	0.000	
57	 CD1	20.720	58.222	5.042	C.2	7	TYR228	0.000	
58	 CD2	21.931	59.124	6.890	C.2	7	TYR228	0.000	
59	 CE1	19.613	58.949	5.403	C.2	7	TYR228	0.000	
60	 CE2	20.812	59.846	7.268	C.2	7	TYR228	0.000	
61	  CZ	19.661	59.757	6.516	C.2	7	TYR228	0.000	
62	  OH	18.561	60.501	6.874	O.3	7	TYR228	0.000	
63	   N	24.927	61.450	13.007	N.am	8	TYR235	0.000	
64	  CA	26.252	61.947	12.621	C.3	8	TYR235	0.000	
65	   C	26.733	63.152	13.417	C.2	8	TYR235	0.000	
66	   O	25.966	64.084	13.686	O.2	8	TYR235	0.000	
67	  CB	26.245	62.316	11.136	C.3	8	TYR235	0.000	
68	  CG	26.088	61.135	10.211	C.2	8	TYR235	0.000	
69	 CD1	25.028	60.256	10.355	C.2	8	TYR235	0.000	
70	 CD2	27.027	60.876	9.212	C.2	8	TYR235	0.000	
71	 CE1	24.890	59.166	9.516	C.2	8	TYR235	0.000	
72	 CE2	26.901	59.774	8.380	C.2	8	TYR235	0.000	
73	  CZ	25.821	58.940	8.521	C.2	8	TYR235	0.000	
74	  OH	25.706	57.827	7.725	O.3	8	TYR235	0.000	
75	   N	28.029	63.167	13.723	N.am	9	PHE236	0.000	
76	  CA	28.635	64.287	14.436	C.3	9	PHE236	0.000	
77	   C	29.977	64.610	13.796	C.2	9	PHE236	0.000	
78	   O	30.512	63.821	13.029	O.2	9	PHE236	0.000	
79	  CB	28.861	63.912	15.907	C.3	9	PHE236	0.000	
80	  CG	27.606	63.538	16.642	C.2	9	PHE236	0.000	
81	 CD1	27.186	62.231	16.690	C.2	9	PHE236	0.000	
82	 CD2	26.878	64.500	17.328	C.2	9	PHE236	0.000	
83	 CE1	26.019	61.888	17.366	C.2	9	PHE236	0.000	
84	 CE2	25.730	64.172	18.000	C.2	9	PHE236	0.000	
85	  CZ	25.293	62.861	18.014	C.2	9	PHE236	0.000	
86	   N	30.541	65.757	14.139	N.am	10	ALA237	0.000	
87	  CA	31.861	66.120	13.648	C.3	10	ALA237	0.000	
88	   C	32.636	66.675	14.829	C.2	10	ALA237	0.000	
89	   O	32.033	67.026	15.840	O.2	10	ALA237	0.000	
90	  CB	31.765	67.151	12.540	C.3	10	ALA237	0.000	
91	   N	32.789	71.214	9.727	N.am	11	LYS242	0.000	
92	  CA	31.945	70.222	9.071	C.3	11	LYS242	0.000	
93	   C	30.475	70.390	9.386	C.2	11	LYS242	0.000	
94	   O	29.655	70.367	8.485	O.2	11	LYS242	0.000	
95	  CB	32.381	68.783	9.371	C.3	11	LYS242	0.000	
96	  CG	31.508	67.744	8.670	C.3	11	LYS242	0.000	
97	  CD	32.247	67.117	7.496	C.3	11	LYS242	0.000	
98	  CE	31.452	67.126	6.192	C.3	11	LYS242	0.000	
99	  NZ	30.395	66.091	6.148	N.4	11	LYS242	0.000	
100	   N	30.144	70.521	10.666	N.am	12	SER243	0.000	
101	  CA	28.748	70.666	11.094	C.3	12	SER243	0.000	
102	   C	28.099	71.975	10.634	C.2	12	SER243	0.000	
103	   O	27.018	71.961	10.036	O.2	12	SER243	0.000	
104	  CB	28.633	70.497	12.616	C.3	12	SER243	0.000	
105	  OG	28.936	69.160	13.000	O.3	12	SER243	0.000	
106	   N	25.798	72.426	7.798	N.am	13	TYR246	0.000	
107	  CA	24.468	71.821	7.742	C.3	13	TYR246	0.000	
108	   C	23.406	72.738	8.333	C.2	13	TYR246	0.000	
109	   O	22.220	72.403	8.369	O.2	13	TYR246	0.000	
110	  CB	24.456	70.430	8.373	C.3	13	TYR246	0.000	
111	  CG	25.391	69.479	7.673	C.2	13	TYR246	0.000	
112	 CD1	25.116	69.013	6.393	C.2	13	TYR246	0.000	
113	 CD2	26.582	69.088	8.266	C.2	13	TYR246	0.000	
114	 CE1	25.994	68.162	5.738	C.2	13	TYR246	0.000	
115	 CE2	27.460	68.242	7.624	C.2	13	TYR246	0.000	
116	  CZ	27.172	67.799	6.357	C.2	13	TYR246	0.000	
117	  OH	28.061	66.960	5.730	O.3	13	TYR246	0.000	
118	   N	36.600	64.414	9.923	N.am	14	ASN326	0.000	
119	  CA	36.153	63.210	10.605	C.3	14	ASN326	0.000	
120	   C	34.640	63.211	10.683	C.2	14	ASN326	0.000	
121	   O	34.000	64.257	10.650	O.2	14	ASN326	0.000	
122	  CB	36.690	63.178	12.038	C.3	14	ASN326	0.000	
123	  CG	38.174	62.893	12.107	C.2	14	ASN326	0.000	
124	 ND2	38.758	63.135	13.271	N.pl3	14	ASN326	0.000	
125	 OD1	38.782	62.419	11.144	O.2	14	ASN326	0.000	
126	   N	34.080	62.027	10.867	N.am	15	GLU327	0.000	
127	  CA	32.643	61.855	11.037	C.3	15	GLU327	0.000	
128	   C	32.515	60.812	12.123	C.2	15	GLU327	0.000	
129	   O	33.336	59.895	12.207	O.2	15	GLU327	0.000	
130	  CB	32.031	61.266	9.769	C.3	15	GLU327	0.000	
131	  CG	31.068	62.147	9.069	C.3	15	GLU327	0.000	
132	  CD	31.117	61.929	7.582	C.2	15	GLU327	0.000	
133	 OE1	30.221	61.237	7.046	O.co2	15	GLU327	0.000	
134	 OE2	32.090	62.408	6.963	O.co2	15	GLU327	0.000	
@<TRIPOS>BOND
1 1 2 1
2 2 3 1
3 2 5 1
4 3 4 2
5 5 6 1
6 6 7 1
7 7 8 1
8 7 9 2
9 10 11 1
10 11 12 1
11 11 14 1
12 12 13 2
13 14 15 1
14 15 16 1
15 16 17 2
16 16 18 1
17 19 20 1
18 20 21 1
19 20 23 1
20 21 22 2
21 21 33 1
22 23 24 1
23 24 25 2
24 24 26 1
25 25 29 1
26 26 27 2
27 26 28 1
28 27 30 1
29 28 31 2
30 27 29 1
31 30 32 2
32 31 32 1
33 33 34 1
34 34 35 1
35 34 37 1
36 35 36 2
37 35 43 1
38 37 38 1
39 38 39 2
40 38 40 1
41 39 42 1
42 40 41 2
43 41 42 1
44 43 44 1
45 44 45 1
46 45 46 2
47 47 48 1
48 48 49 1
49 49 50 2
50 49 51 1
51 51 52 1
52 52 53 1
53 52 55 1
54 53 54 2
55 55 56 1
56 56 57 2
57 56 58 1
58 57 59 1
59 58 60 2
60 59 61 2
61 60 61 1
62 61 62 1
63 63 64 1
64 64 65 1
65 64 67 1
66 65 66 2
67 65 75 1
68 67 68 1
69 68 69 2
70 68 70 1
71 69 71 1
72 70 72 2
73 71 73 2
74 72 73 1
75 73 74 1
76 75 76 1
77 76 77 1
78 76 79 1
79 77 78 2
80 77 86 1
81 79 80 1
82 80 81 2
83 80 82 1
84 81 83 1
85 82 84 2
86 83 85 2
87 84 85 1
88 86 87 1
89 87 88 1
90 87 90 1
91 88 89 2
92 91 92 1
93 92 93 1
94 92 95 1
95 93 94 2
96 93 100 1
97 95 96 1
98 96 97 1
99 97 98 1
100 98 99 1
101 100 101 1
102 101 102 1
103 101 104 1
104 102 103 2
105 104 105 1
106 106 107 1
107 107 108 1
108 107 110 1
109 108 109 2
110 110 111 1
111 111 112 2
112 111 113 1
113 112 114 1
114 113 115 2
115 114 116 2
116 115 116 1
117 116 117 1
118 118 119 1
119 119 120 1
120 119 122 1
121 120 121 2
122 120 126 1
123 122 123 1
124 123 124 1
125 123 125 2
126 126 127 1
127 127 128 1
128 127 130 1
129 128 129 2
130 130 131 1
131 131 132 1
132 132 133 2
133 132 134 1
@<TRIPOS>SUBSTRUCTURE
1	GLN98	1	RESIDUE	1 B	GLN
2	GLU102	10	RESIDUE	1 B	GLU
3	TRP200	19	RESIDUE	1 B	TRP
4	HIS201	33	RESIDUE	1 B	HIS
5	GLY202	43	RESIDUE	1 B	GLY
6	GLY227	47	RESIDUE	1 B	GLY
7	TYR228	51	RESIDUE	1 B	TYR
8	TYR235	63	RESIDUE	1 B	TYR
9	PHE236	75	RESIDUE	1 B	PHE
10	ALA237	86	RESIDUE	1 B	ALA
11	LYS242	91	RESIDUE	1 B	LYS
12	SER243	100	RESIDUE	1 B	SER
13	TYR246	106	RESIDUE	1 B	TYR
14	ASN326	118	RESIDUE	1 B	ASN
15	GLU327	126	RESIDUE	1 B	GLU
