# created with PyMOL 2.5.2
@<TRIPOS>MOLECULE
PARP1_3GN7_TargetProtein
125 125 14              
SMALL
USER_CHARGES
@<TRIPOS>ATOM
1	   N	16.516	64.771	1.717	N.am	1	GLU102	0.000	
2	  CA	16.993	65.766	2.664	C.3	1	GLU102	0.000	
3	   C	15.866	66.743	2.912	C.2	1	GLU102	0.000	
4	   O	15.669	67.213	4.034	O.2	1	GLU102	0.000	
5	  CB	18.210	66.502	2.097	C.3	1	GLU102	0.000	
6	  CG	19.513	66.283	2.881	C.3	1	GLU102	0.000	
7	  CD	20.743	66.161	1.986	C.2	1	GLU102	0.000	
8	 OE1	21.602	65.296	2.268	O.co2	1	GLU102	0.000	
9	 OE2	20.853	66.930	1.005	O.co2	1	GLU102	0.000	
10	   N	30.025	68.032	17.552	N.am	2	TRP200	0.000	
11	  CA	29.117	68.951	16.890	C.3	2	TRP200	0.000	
12	   C	28.021	68.267	16.088	C.2	2	TRP200	0.000	
13	   O	28.201	67.176	15.552	O.2	2	TRP200	0.000	
14	  CB	29.903	69.839	15.925	C.3	2	TRP200	0.000	
15	  CG	30.914	70.733	16.578	C.2	2	TRP200	0.000	
16	 CD1	32.272	70.582	16.569	C.2	2	TRP200	0.000	
17	 CD2	30.646	71.940	17.309	C.2	2	TRP200	0.000	
18	 CE2	31.891	72.478	17.698	C.2	2	TRP200	0.000	
19	 CE3	29.475	72.621	17.661	C.2	2	TRP200	0.000	
20	 NE1	32.868	71.635	17.230	N.pl3	2	TRP200	0.000	
21	 CZ2	32.001	73.659	18.435	C.2	2	TRP200	0.000	
22	 CZ3	29.583	73.798	18.389	C.2	2	TRP200	0.000	
23	 CH2	30.841	74.311	18.760	C.2	2	TRP200	0.000	
24	   N	26.894	68.960	15.971	N.am	3	HIS201	0.000	
25	  CA	25.791	68.524	15.132	C.3	3	HIS201	0.000	
26	   C	25.042	69.748	14.649	C.2	3	HIS201	0.000	
27	   O	24.446	70.474	15.443	O.2	3	HIS201	0.000	
28	  CB	24.851	67.553	15.824	C.3	3	HIS201	0.000	
29	  CG	23.872	66.911	14.886	C.2	3	HIS201	0.000	
30	 CD2	23.884	65.705	14.272	C.2	3	HIS201	0.000	
31	 ND1	22.746	67.561	14.422	N.pl3	3	HIS201	0.000	
32	 CE1	22.102	66.780	13.577	C.2	3	HIS201	0.000	
33	 NE2	22.773	65.648	13.465	N.pl3	3	HIS201	0.000	
34	   N	25.164	70.030	13.354	N.am	4	GLY202	0.000	
35	  CA	24.502	71.166	12.754	C.3	4	GLY202	0.000	
36	   C	23.250	70.690	12.039	C.2	4	GLY202	0.000	
37	   O	23.212	69.574	11.515	O.2	4	GLY202	0.000	
38	   N	23.022	58.939	0.554	N.am	5	GLY227	0.000	
39	  CA	23.223	60.150	1.329	C.3	5	GLY227	0.000	
40	   C	23.791	59.891	2.709	C.2	5	GLY227	0.000	
41	   O	24.440	60.766	3.293	O.2	5	GLY227	0.000	
42	   N	23.545	58.696	3.238	N.am	6	TYR228	0.000	
43	  CA	24.116	58.312	4.522	C.3	6	TYR228	0.000	
44	   C	25.343	57.433	4.248	C.2	6	TYR228	0.000	
45	   O	25.241	56.200	4.263	O.2	6	TYR228	0.000	
46	  CB	23.114	57.523	5.364	C.3	6	TYR228	0.000	
47	  CG	21.903	58.304	5.772	C.2	6	TYR228	0.000	
48	 CD1	20.720	58.222	5.042	C.2	6	TYR228	0.000	
49	 CD2	21.931	59.124	6.890	C.2	6	TYR228	0.000	
50	 CE1	19.613	58.949	5.403	C.2	6	TYR228	0.000	
51	 CE2	20.812	59.846	7.268	C.2	6	TYR228	0.000	
52	  CZ	19.661	59.757	6.516	C.2	6	TYR228	0.000	
53	  OH	18.561	60.501	6.874	O.3	6	TYR228	0.000	
54	   N	24.927	61.450	13.007	N.am	7	TYR235	0.000	
55	  CA	26.252	61.947	12.621	C.3	7	TYR235	0.000	
56	   C	26.733	63.152	13.417	C.2	7	TYR235	0.000	
57	   O	25.966	64.084	13.686	O.2	7	TYR235	0.000	
58	  CB	26.245	62.316	11.136	C.3	7	TYR235	0.000	
59	  CG	26.088	61.135	10.211	C.2	7	TYR235	0.000	
60	 CD1	25.028	60.256	10.355	C.2	7	TYR235	0.000	
61	 CD2	27.027	60.876	9.212	C.2	7	TYR235	0.000	
62	 CE1	24.890	59.166	9.516	C.2	7	TYR235	0.000	
63	 CE2	26.901	59.774	8.380	C.2	7	TYR235	0.000	
64	  CZ	25.821	58.940	8.521	C.2	7	TYR235	0.000	
65	  OH	25.706	57.827	7.725	O.3	7	TYR235	0.000	
66	   N	28.029	63.167	13.723	N.am	8	PHE236	0.000	
67	  CA	28.635	64.287	14.436	C.3	8	PHE236	0.000	
68	   C	29.977	64.610	13.796	C.2	8	PHE236	0.000	
69	   O	30.512	63.821	13.029	O.2	8	PHE236	0.000	
70	  CB	28.861	63.912	15.907	C.3	8	PHE236	0.000	
71	  CG	27.606	63.538	16.642	C.2	8	PHE236	0.000	
72	 CD1	27.186	62.231	16.690	C.2	8	PHE236	0.000	
73	 CD2	26.878	64.500	17.328	C.2	8	PHE236	0.000	
74	 CE1	26.019	61.888	17.366	C.2	8	PHE236	0.000	
75	 CE2	25.730	64.172	18.000	C.2	8	PHE236	0.000	
76	  CZ	25.293	62.861	18.014	C.2	8	PHE236	0.000	
77	   N	30.541	65.757	14.139	N.am	9	ALA237	0.000	
78	  CA	31.861	66.120	13.648	C.3	9	ALA237	0.000	
79	   C	32.636	66.675	14.829	C.2	9	ALA237	0.000	
80	   O	32.033	67.026	15.840	O.2	9	ALA237	0.000	
81	  CB	31.765	67.151	12.540	C.3	9	ALA237	0.000	
82	   N	32.789	71.214	9.727	N.am	10	LYS242	0.000	
83	  CA	31.945	70.222	9.071	C.3	10	LYS242	0.000	
84	   C	30.475	70.390	9.386	C.2	10	LYS242	0.000	
85	   O	29.655	70.367	8.485	O.2	10	LYS242	0.000	
86	  CB	32.381	68.783	9.371	C.3	10	LYS242	0.000	
87	  CG	31.508	67.744	8.670	C.3	10	LYS242	0.000	
88	  CD	32.247	67.117	7.496	C.3	10	LYS242	0.000	
89	  CE	31.452	67.126	6.192	C.3	10	LYS242	0.000	
90	  NZ	30.395	66.091	6.148	N.4	10	LYS242	0.000	
91	   N	30.144	70.521	10.666	N.am	11	SER243	0.000	
92	  CA	28.748	70.666	11.094	C.3	11	SER243	0.000	
93	   C	28.099	71.975	10.634	C.2	11	SER243	0.000	
94	   O	27.018	71.961	10.036	O.2	11	SER243	0.000	
95	  CB	28.633	70.497	12.616	C.3	11	SER243	0.000	
96	  OG	28.936	69.160	13.000	O.3	11	SER243	0.000	
97	   N	25.798	72.426	7.798	N.am	12	TYR246	0.000	
98	  CA	24.468	71.821	7.742	C.3	12	TYR246	0.000	
99	   C	23.406	72.738	8.333	C.2	12	TYR246	0.000	
100	   O	22.220	72.403	8.369	O.2	12	TYR246	0.000	
101	  CB	24.456	70.430	8.373	C.3	12	TYR246	0.000	
102	  CG	25.391	69.479	7.673	C.2	12	TYR246	0.000	
103	 CD1	25.116	69.013	6.393	C.2	12	TYR246	0.000	
104	 CD2	26.582	69.088	8.266	C.2	12	TYR246	0.000	
105	 CE1	25.994	68.162	5.738	C.2	12	TYR246	0.000	
106	 CE2	27.460	68.242	7.624	C.2	12	TYR246	0.000	
107	  CZ	27.172	67.799	6.357	C.2	12	TYR246	0.000	
108	  OH	28.061	66.960	5.730	O.3	12	TYR246	0.000	
109	   N	36.600	64.414	9.923	N.am	13	ASN326	0.000	
110	  CA	36.153	63.210	10.605	C.3	13	ASN326	0.000	
111	   C	34.640	63.211	10.683	C.2	13	ASN326	0.000	
112	   O	34.000	64.257	10.650	O.2	13	ASN326	0.000	
113	  CB	36.690	63.178	12.038	C.3	13	ASN326	0.000	
114	  CG	38.174	62.893	12.107	C.2	13	ASN326	0.000	
115	 ND2	38.758	63.135	13.271	N.pl3	13	ASN326	0.000	
116	 OD1	38.782	62.419	11.144	O.2	13	ASN326	0.000	
117	   N	34.080	62.027	10.867	N.am	14	GLU327	0.000	
118	  CA	32.643	61.855	11.037	C.3	14	GLU327	0.000	
119	   C	32.515	60.812	12.123	C.2	14	GLU327	0.000	
120	   O	33.336	59.895	12.207	O.2	14	GLU327	0.000	
121	  CB	32.031	61.266	9.769	C.3	14	GLU327	0.000	
122	  CG	31.068	62.147	9.069	C.3	14	GLU327	0.000	
123	  CD	31.117	61.929	7.582	C.2	14	GLU327	0.000	
124	 OE1	30.221	61.237	7.046	O.co2	14	GLU327	0.000	
125	 OE2	32.090	62.408	6.963	O.co2	14	GLU327	0.000	
@<TRIPOS>BOND
1 1 2 1
2 2 3 1
3 2 5 1
4 3 4 2
5 5 6 1
6 6 7 1
7 7 8 2
8 7 9 1
9 10 11 1
10 11 12 1
11 11 14 1
12 12 13 2
13 12 24 1
14 14 15 1
15 15 16 2
16 15 17 1
17 16 20 1
18 17 18 2
19 17 19 1
20 18 21 1
21 19 22 2
22 18 20 1
23 21 23 2
24 22 23 1
25 24 25 1
26 25 26 1
27 25 28 1
28 26 27 2
29 26 34 1
30 28 29 1
31 29 30 2
32 29 31 1
33 30 33 1
34 31 32 2
35 32 33 1
36 34 35 1
37 35 36 1
38 36 37 2
39 38 39 1
40 39 40 1
41 40 41 2
42 40 42 1
43 42 43 1
44 43 44 1
45 43 46 1
46 44 45 2
47 46 47 1
48 47 48 2
49 47 49 1
50 48 50 1
51 49 51 2
52 50 52 2
53 51 52 1
54 52 53 1
55 54 55 1
56 55 56 1
57 55 58 1
58 56 57 2
59 56 66 1
60 58 59 1
61 59 60 2
62 59 61 1
63 60 62 1
64 61 63 2
65 62 64 2
66 63 64 1
67 64 65 1
68 66 67 1
69 67 68 1
70 67 70 1
71 68 69 2
72 68 77 1
73 70 71 1
74 71 72 2
75 71 73 1
76 72 74 1
77 73 75 2
78 74 76 2
79 75 76 1
80 77 78 1
81 78 79 1
82 78 81 1
83 79 80 2
84 82 83 1
85 83 84 1
86 83 86 1
87 84 85 2
88 84 91 1
89 86 87 1
90 87 88 1
91 88 89 1
92 89 90 1
93 91 92 1
94 92 93 1
95 92 95 1
96 93 94 2
97 95 96 1
98 97 98 1
99 98 99 1
100 98 101 1
101 99 100 2
102 101 102 1
103 102 103 2
104 102 104 1
105 103 105 1
106 104 106 2
107 105 107 2
108 106 107 1
109 107 108 1
110 109 110 1
111 110 111 1
112 110 113 1
113 111 112 2
114 111 117 1
115 113 114 1
116 114 115 1
117 114 116 2
118 117 118 1
119 118 119 1
120 118 121 1
121 119 120 2
122 121 122 1
123 122 123 1
124 123 124 2
125 123 125 1
@<TRIPOS>SUBSTRUCTURE
1	GLU102	1	RESIDUE	1 B	GLU
2	TRP200	10	RESIDUE	1 B	TRP
3	HIS201	24	RESIDUE	1 B	HIS
4	GLY202	34	RESIDUE	1 B	GLY
5	GLY227	38	RESIDUE	1 B	GLY
6	TYR228	42	RESIDUE	1 B	TYR
7	TYR235	54	RESIDUE	1 B	TYR
8	PHE236	66	RESIDUE	1 B	PHE
9	ALA237	77	RESIDUE	1 B	ALA
10	LYS242	82	RESIDUE	1 B	LYS
11	SER243	91	RESIDUE	1 B	SER
12	TYR246	97	RESIDUE	1 B	TYR
13	ASN326	109	RESIDUE	1 B	ASN
14	GLU327	117	RESIDUE	1 B	GLU
