# created with PyMOL 2.5.2
@<TRIPOS>MOLECULE
PARP1_4R6E_TargetProtein
139 137 16              
SMALL
USER_CHARGES
@<TRIPOS>ATOM
1	   N	-59.847	28.147	33.936	N.am	1	GLN759	0.000	
2	  CA	-60.858	27.316	33.287	C.3	1	GLN759	0.000	
3	   C	-61.463	26.307	34.260	C.2	1	GLN759	0.000	
4	   O	-62.673	26.116	34.247	O.2	1	GLN759	0.000	
5	  CB	-60.269	26.599	32.066	C.3	1	GLN759	0.000	
6	  CG	-60.825	27.146	30.770	C.3	1	GLN759	0.000	
7	  CD	-60.526	26.168	29.654	C.2	1	GLN759	0.000	
8	 NE2	-61.295	25.089	29.583	N.pl3	1	GLN759	0.000	
9	 OE1	-59.598	26.353	28.856	O.2	1	GLN759	0.000	
10	   N	-63.707	28.386	36.472	N.am	2	ALA762	0.000	
11	  CA	-64.893	28.847	35.739	C.3	2	ALA762	0.000	
12	   C	-65.892	27.692	35.611	C.2	2	ALA762	0.000	
13	   O	-67.083	27.916	35.744	O.2	2	ALA762	0.000	
14	  CB	-64.499	29.387	34.367	C.3	2	ALA762	0.000	
15	   N	-65.389	26.471	35.391	N.am	3	GLU763	0.000	
16	  CA	-66.195	25.239	35.327	C.3	3	GLU763	0.000	
17	   C	-66.897	25.012	36.690	C.2	3	GLU763	0.000	
18	   O	-68.080	24.707	36.727	O.2	3	GLU763	0.000	
19	  CB	-65.291	24.036	34.976	C.3	3	GLU763	0.000	
20	  CG	-66.042	22.846	34.402	C.3	3	GLU763	0.000	
21	  CD	-65.216	21.574	34.293	C.2	3	GLU763	0.000	
22	 OE1	-64.365	21.494	33.376	O.co2	3	GLU763	0.000	
23	 OE2	-65.424	20.657	35.123	O.co2	3	GLU763	0.000	
24	   N	-69.729	27.631	37.036	N.am	4	ASP766	0.000	
25	  CA	-70.884	27.270	36.191	C.3	4	ASP766	0.000	
26	   C	-71.766	26.278	36.927	C.2	4	ASP766	0.000	
27	   O	-72.972	26.438	36.938	O.2	4	ASP766	0.000	
28	  CB	-70.444	26.639	34.835	C.3	4	ASP766	0.000	
29	  CG	-69.595	27.509	33.909	C.2	4	ASP766	0.000	
30	 OD1	-69.588	28.747	34.083	O.co2	4	ASP766	0.000	
31	 OD2	-68.940	26.951	33.015	O.co2	4	ASP766	0.000	
32	   N	-77.983	16.711	20.647	N.am	5	TRP861	0.000	
33	  CA	-77.673	16.336	22.023	C.3	5	TRP861	0.000	
34	   C	-77.053	17.465	22.823	C.2	5	TRP861	0.000	
35	   O	-76.216	18.204	22.312	O.2	5	TRP861	0.000	
36	  CB	-76.673	15.163	22.047	C.3	5	TRP861	0.000	
37	  CG	-77.148	13.911	21.389	C.2	5	TRP861	0.000	
38	 CD1	-76.733	13.406	20.192	C.2	5	TRP861	0.000	
39	 CD2	-78.108	12.979	21.915	C.2	5	TRP861	0.000	
40	 CE2	-78.221	11.927	20.983	C.2	5	TRP861	0.000	
41	 CE3	-78.878	12.931	23.087	C.2	5	TRP861	0.000	
42	 NE1	-77.351	12.201	19.953	N.pl3	5	TRP861	0.000	
43	 CZ2	-79.091	10.845	21.177	C.2	5	TRP861	0.000	
44	 CZ3	-79.740	11.853	23.277	C.2	5	TRP861	0.000	
45	 CH2	-79.864	10.847	22.312	C.2	5	TRP861	0.000	
46	   N	-77.389	17.528	24.105	N.am	6	HIS862	0.000	
47	  CA	-76.735	18.444	25.042	C.3	6	HIS862	0.000	
48	   C	-76.625	17.750	26.390	C.2	6	HIS862	0.000	
49	   O	-77.640	17.457	27.016	O.2	6	HIS862	0.000	
50	  CB	-77.442	19.800	25.158	C.3	6	HIS862	0.000	
51	  CG	-76.693	20.736	26.063	C.2	6	HIS862	0.000	
52	 CD2	-76.723	20.847	27.414	C.2	6	HIS862	0.000	
53	 ND1	-75.763	21.622	25.564	N.pl3	6	HIS862	0.000	
54	 CE1	-75.250	22.250	26.616	C.2	6	HIS862	0.000	
55	 NE2	-75.812	21.839	27.752	N.pl3	6	HIS862	0.000	
56	   N	-75.399	17.474	26.804	N.am	7	GLY863	0.000	
57	  CA	-75.106	16.835	28.085	C.3	7	GLY863	0.000	
58	   C	-74.671	17.855	29.124	C.2	7	GLY863	0.000	
59	   O	-74.085	18.899	28.795	O.2	7	GLY863	0.000	
60	   N	-61.580	29.345	27.159	N.am	8	GLY888	0.000	
61	  CA	-62.148	28.001	27.279	C.3	8	GLY888	0.000	
62	   C	-63.350	27.732	26.399	C.2	8	GLY888	0.000	
63	   O	-63.969	26.668	26.493	O.2	8	GLY888	0.000	
64	   N	-63.696	28.695	25.549	N.am	9	TYR889	0.000	
65	  CA	-64.831	28.588	24.639	C.3	9	TYR889	0.000	
66	   C	-64.270	28.592	23.231	C.2	9	TYR889	0.000	
67	   O	-63.932	29.662	22.702	O.2	9	TYR889	0.000	
68	  CB	-65.816	29.757	24.876	C.3	9	TYR889	0.000	
69	  CG	-66.643	29.617	26.132	C.2	9	TYR889	0.000	
70	 CD1	-67.787	28.819	26.152	C.2	9	TYR889	0.000	
71	 CD2	-66.305	30.312	27.300	C.2	9	TYR889	0.000	
72	 CE1	-68.550	28.675	27.310	C.2	9	TYR889	0.000	
73	 CE2	-67.066	30.179	28.467	C.2	9	TYR889	0.000	
74	  CZ	-68.175	29.345	28.469	C.2	9	TYR889	0.000	
75	  OH	-68.917	29.172	29.608	O.3	9	TYR889	0.000	
76	   N	-73.731	24.964	23.109	N.am	10	TYR896	0.000	
77	  CA	-73.054	23.914	22.339	C.3	10	TYR896	0.000	
78	   C	-73.848	22.609	22.310	C.2	10	TYR896	0.000	
79	   O	-74.385	22.181	23.332	O.2	10	TYR896	0.000	
80	  CB	-71.664	23.647	22.944	C.3	10	TYR896	0.000	
81	  CG	-70.642	24.758	22.718	C.2	10	TYR896	0.000	
82	 CD1	-70.791	26.010	23.320	C.2	10	TYR896	0.000	
83	 CD2	-69.475	24.520	21.990	C.2	10	TYR896	0.000	
84	 CE1	-69.838	27.021	23.137	C.2	10	TYR896	0.000	
85	 CE2	-68.505	25.509	21.829	C.2	10	TYR896	0.000	
86	  CZ	-68.697	26.763	22.392	C.2	10	TYR896	0.000	
87	  OH	-67.759	27.739	22.200	O.3	10	TYR896	0.000	
88	   N	-73.870	21.957	21.144	N.am	11	PHE897	0.000	
89	  CA	-74.582	20.690	20.909	C.3	11	PHE897	0.000	
90	   C	-73.758	19.752	20.081	C.2	11	PHE897	0.000	
91	   O	-72.908	20.215	19.330	O.2	11	PHE897	0.000	
92	  CB	-75.906	20.933	20.141	C.3	11	PHE897	0.000	
93	  CG	-76.912	21.803	20.842	C.2	11	PHE897	0.000	
94	 CD1	-76.886	23.181	20.689	C.2	11	PHE897	0.000	
95	 CD2	-77.909	21.241	21.623	C.2	11	PHE897	0.000	
96	 CE1	-77.811	23.985	21.346	C.2	11	PHE897	0.000	
97	 CE2	-78.841	22.048	22.273	C.2	11	PHE897	0.000	
98	  CZ	-78.768	23.406	22.153	C.2	11	PHE897	0.000	
99	   N	-74.043	18.439	20.173	N.am	12	ALA898	0.000	
100	  CA	-73.359	17.437	19.365	C.3	12	ALA898	0.000	
101	   C	-74.381	16.624	18.566	C.2	12	ALA898	0.000	
102	   O	-75.554	16.572	18.938	O.2	12	ALA898	0.000	
103	  CB	-72.549	16.506	20.265	C.3	12	ALA898	0.000	
104	   N	-70.315	12.335	22.618	N.am	13	LYS903	0.000	
105	  CA	-69.620	13.613	22.774	C.3	13	LYS903	0.000	
106	   C	-70.347	14.446	23.833	C.2	13	LYS903	0.000	
107	   O	-69.702	15.026	24.692	O.2	13	LYS903	0.000	
108	  CB	-69.505	14.366	21.431	C.3	13	LYS903	0.000	
109	  CG	-68.708	15.679	21.546	C.3	13	LYS903	0.000	
110	  CD	-68.291	16.230	20.211	C.3	13	LYS903	0.000	
111	  CE	-67.732	17.631	20.318	C.3	13	LYS903	0.000	
112	  NZ	-67.130	18.082	19.027	N.4	13	LYS903	0.000	
113	   N	-71.679	14.484	23.787	N.am	14	SER904	0.000	
114	  CA	-72.456	15.202	24.801	C.3	14	SER904	0.000	
115	   C	-72.483	14.411	26.121	C.2	14	SER904	0.000	
116	   O	-72.451	15.019	27.188	O.2	14	SER904	0.000	
117	  CB	-73.880	15.440	24.310	C.3	14	SER904	0.000	
118	  OG	-73.925	16.509	23.377	O.3	14	SER904	0.000	
119	   N	-70.052	15.217	28.835	N.am	15	TYR907	0.000	
120	  CA	-70.313	16.407	29.638	C.3	15	TYR907	0.000	
121	   C	-71.266	16.127	30.812	C.2	15	TYR907	0.000	
122	   O	-71.492	17.031	31.618	O.2	15	TYR907	0.000	
123	  CB	-70.828	17.558	28.760	C.3	15	TYR907	0.000	
124	  CG	-69.737	18.116	27.881	C.2	15	TYR907	0.000	
125	 CD1	-68.796	19.015	28.386	C.2	15	TYR907	0.000	
126	 CD2	-69.580	17.676	26.575	C.2	15	TYR907	0.000	
127	 CE1	-67.757	19.497	27.588	C.2	15	TYR907	0.000	
128	 CE2	-68.539	18.139	25.777	C.2	15	TYR907	0.000	
129	  CZ	-67.651	19.074	26.276	C.2	15	TYR907	0.000	
130	  OH	-66.618	19.501	25.482	O.3	15	TYR907	0.000	
131	   N	-69.745	19.787	16.185	N.am	16	GLU988	0.000	
132	  CA	-70.391	20.506	17.263	C.3	16	GLU988	0.000	
133	   C	-71.116	21.674	16.641	C.2	16	GLU988	0.000	
134	   O	-70.748	22.105	15.563	O.2	16	GLU988	0.000	
135	  CB	-69.476	20.894	18.422	C.3	16	GLU988	0.000	
136	  CG	-68.259	21.717	18.072	C.3	16	GLU988	0.000	
137	  CD	-67.342	21.819	19.269	C.2	16	GLU988	0.000	
138	 OE1	-67.283	22.906	19.884	O.co2	16	GLU988	0.000	
139	 OE2	-66.771	20.780	19.659	O.co2	16	GLU988	0.000	
@<TRIPOS>BOND
1 1 2 1
2 2 3 1
3 2 5 1
4 3 4 2
5 5 6 1
6 6 7 1
7 7 8 1
8 7 9 2
9 10 11 1
10 11 12 1
11 11 14 1
12 12 13 2
13 12 15 1
14 15 16 1
15 16 17 1
16 16 19 1
17 17 18 2
18 19 20 1
19 20 21 1
20 21 22 2
21 21 23 1
22 24 25 1
23 25 26 1
24 25 28 1
25 26 27 2
26 28 29 1
27 29 30 2
28 29 31 1
29 32 33 1
30 33 34 1
31 33 36 1
32 34 35 2
33 34 46 1
34 36 37 1
35 37 38 2
36 37 39 1
37 38 42 1
38 39 40 2
39 39 41 1
40 40 43 1
41 41 44 2
42 40 42 1
43 43 45 2
44 44 45 1
45 46 47 1
46 47 48 1
47 47 50 1
48 48 49 2
49 48 56 1
50 50 51 1
51 51 52 2
52 51 53 1
53 52 55 1
54 53 54 2
55 54 55 1
56 56 57 1
57 57 58 1
58 58 59 2
59 60 61 1
60 61 62 1
61 62 63 2
62 62 64 1
63 64 65 1
64 65 66 1
65 65 68 1
66 66 67 2
67 68 69 1
68 69 70 2
69 69 71 1
70 70 72 1
71 71 73 2
72 72 74 2
73 73 74 1
74 74 75 1
75 76 77 1
76 77 78 1
77 77 80 1
78 78 79 2
79 78 88 1
80 80 81 1
81 81 82 2
82 81 83 1
83 82 84 1
84 83 85 2
85 84 86 2
86 85 86 1
87 86 87 1
88 88 89 1
89 89 90 1
90 89 92 1
91 90 91 2
92 90 99 1
93 92 93 1
94 93 94 2
95 93 95 1
96 94 96 1
97 95 97 2
98 96 98 2
99 97 98 1
100 99 100 1
101 100 101 1
102 100 103 1
103 101 102 2
104 104 105 1
105 105 106 1
106 105 108 1
107 106 107 2
108 106 113 1
109 108 109 1
110 109 110 1
111 110 111 1
112 111 112 1
113 113 114 1
114 114 115 1
115 114 117 1
116 115 116 2
117 117 118 1
118 119 120 1
119 120 121 1
120 120 123 1
121 121 122 2
122 123 124 1
123 124 125 2
124 124 126 1
125 125 127 1
126 126 128 2
127 127 129 2
128 128 129 1
129 129 130 1
130 131 132 1
131 132 133 1
132 132 135 1
133 133 134 2
134 135 136 1
135 136 137 1
136 137 138 2
137 137 139 1
@<TRIPOS>SUBSTRUCTURE
1	GLN759	1	RESIDUE	1 B	GLN
2	ALA762	10	RESIDUE	1 B	ALA
3	GLU763	15	RESIDUE	1 B	GLU
4	ASP766	24	RESIDUE	1 B	ASP
5	TRP861	32	RESIDUE	1 B	TRP
6	HIS862	46	RESIDUE	1 B	HIS
7	GLY863	56	RESIDUE	1 B	GLY
8	GLY888	60	RESIDUE	1 B	GLY
9	TYR889	64	RESIDUE	1 B	TYR
10	TYR896	76	RESIDUE	1 B	TYR
11	PHE897	88	RESIDUE	1 B	PHE
12	ALA898	99	RESIDUE	1 B	ALA
13	LYS903	104	RESIDUE	1 B	LYS
14	SER904	113	RESIDUE	1 B	SER
15	TYR907	119	RESIDUE	1 B	TYR
16	GLU988	131	RESIDUE	1 B	GLU
