# created with PyMOL 2.5.2
@<TRIPOS>MOLECULE
BTK_5P9I_TargetProtein
167 156 23              
SMALL
USER_CHARGES
@<TRIPOS>ATOM
1	   N	-9.909	1.150	-19.750	N.am	1	LEU408	0.000	
2	  CA	-10.320	2.478	-20.212	C.3	1	LEU408	0.000	
3	   C	-9.381	3.598	-19.809	C.2	1	LEU408	0.000	
4	   O	-9.509	4.724	-20.308	O.2	1	LEU408	0.000	
5	  CB	-11.735	2.802	-19.739	C.3	1	LEU408	0.000	
6	  CG	-12.851	1.831	-20.144	C.3	1	LEU408	0.000	
7	 CD1	-14.140	2.234	-19.520	C.3	1	LEU408	0.000	
8	 CD2	-13.008	1.747	-21.650	C.3	1	LEU408	0.000	
9	   N	-8.453	3.281	-18.923	N.am	2	GLY409	0.000	
10	  CA	-7.484	4.243	-18.414	C.3	2	GLY409	0.000	
11	   C	-7.701	4.524	-16.945	C.2	2	GLY409	0.000	
12	   O	-8.491	3.846	-16.270	O.2	2	GLY409	0.000	
13	   N	-6.993	5.530	-16.436	N.am	3	THR410	0.000	
14	  CA	-7.111	5.915	-15.041	C.3	3	THR410	0.000	
15	   C	-7.963	7.163	-14.978	C.2	3	THR410	0.000	
16	   O	-7.645	8.177	-15.612	O.2	3	THR410	0.000	
17	  CB	-5.728	6.105	-14.397	C.3	3	THR410	0.000	
18	 CG2	-4.876	4.844	-14.453	C.3	3	THR410	0.000	
19	 OG1	-5.056	7.184	-15.047	O.3	3	THR410	0.000	
20	   N	-9.078	7.051	-14.276	N.am	4	GLY411	0.000	
21	  CA	-9.992	8.162	-14.074	C.3	4	GLY411	0.000	
22	   C	-9.759	8.735	-12.696	C.2	4	GLY411	0.000	
23	   O	-8.791	8.353	-12.022	O.2	4	GLY411	0.000	
24	   N	-10.156	2.208	-14.520	N.am	5	VAL416	0.000	
25	  CA	-11.525	1.906	-14.915	C.3	5	VAL416	0.000	
26	   C	-11.486	0.943	-16.071	C.2	5	VAL416	0.000	
27	   O	-10.669	1.094	-16.991	O.2	5	VAL416	0.000	
28	  CB	-12.316	3.190	-15.307	C.3	5	VAL416	0.000	
29	 CG1	-13.773	2.862	-15.625	C.3	5	VAL416	0.000	
30	 CG2	-12.231	4.277	-14.221	C.3	5	VAL416	0.000	
31	   N	-19.293	-0.236	-16.532	N.am	6	ALA428	0.000	
32	  CA	-17.959	0.238	-16.228	C.3	6	ALA428	0.000	
33	   C	-17.612	-0.217	-14.807	C.2	6	ALA428	0.000	
34	   O	-18.484	-0.286	-13.944	O.2	6	ALA428	0.000	
35	  CB	-17.886	1.750	-16.321	C.3	6	ALA428	0.000	
36	   N	-15.044	0.718	-11.870	N.am	7	LYS430	0.000	
37	  CA	-14.052	1.662	-11.320	C.3	7	LYS430	0.000	
38	   C	-13.418	1.035	-10.092	C.2	7	LYS430	0.000	
39	   O	-14.122	0.655	-9.160	O.2	7	LYS430	0.000	
40	  CB	-14.669	3.035	-11.010	C.3	7	LYS430	0.000	
41	  CG	-13.705	4.026	-10.343	C.3	7	LYS430	0.000	
42	  CD	-14.284	5.435	-10.230	C.3	7	LYS430	0.000	
43	  CE	-13.922	6.261	-11.435	C.3	7	LYS430	0.000	
44	  NZ	-14.284	7.703	-11.251	N.4	7	LYS430	0.000	
45	   N	-26.851	6.516	-3.056	N.am	8	MET449	0.000	
46	  CA	-26.592	6.769	-4.470	C.3	8	MET449	0.000	
47	   C	-27.291	5.772	-5.385	C.2	8	MET449	0.000	
48	   O	-27.662	6.145	-6.493	O.2	8	MET449	0.000	
49	  CB	-25.112	6.806	-4.784	C.3	8	MET449	0.000	
50	  CG	-24.376	7.890	-4.052	C.3	8	MET449	0.000	
51	  SD	-22.592	7.637	-4.019	S.3	8	MET449	0.000	
52	  CE	-22.182	8.001	-5.697	C.3	8	MET449	0.000	
53	   N	-25.361	9.361	-14.386	N.am	9	VAL458	0.000	
54	  CA	-24.730	8.046	-14.504	C.3	9	VAL458	0.000	
55	   C	-25.232	7.116	-13.396	C.2	9	VAL458	0.000	
56	   O	-25.128	7.455	-12.218	O.2	9	VAL458	0.000	
57	  CB	-23.186	8.160	-14.493	C.3	9	VAL458	0.000	
58	 CG1	-22.493	6.785	-14.381	C.3	9	VAL458	0.000	
59	 CG2	-22.695	8.892	-15.743	C.3	9	VAL458	0.000	
60	   N	-16.576	-0.033	-8.021	N.am	10	ILE472	0.000	
61	  CA	-17.803	0.728	-8.210	C.3	10	ILE472	0.000	
62	   C	-18.306	0.317	-9.607	C.2	10	ILE472	0.000	
63	   O	-17.558	0.465	-10.588	O.2	10	ILE472	0.000	
64	  CB	-17.609	2.258	-8.122	C.3	10	ILE472	0.000	
65	 CG1	-16.947	2.656	-6.773	C.3	10	ILE472	0.000	
66	 CG2	-18.980	2.902	-8.274	C.3	10	ILE472	0.000	
67	 CD1	-16.711	4.207	-6.709	C.3	10	ILE472	0.000	
68	   N	-20.946	0.764	-12.661	N.am	11	THR474	0.000	
69	  CA	-21.844	1.802	-13.136	C.3	11	THR474	0.000	
70	   C	-22.222	1.564	-14.561	C.2	11	THR474	0.000	
71	   O	-21.689	0.697	-15.287	O.2	11	THR474	0.000	
72	  CB	-21.195	3.228	-13.029	C.3	11	THR474	0.000	
73	 CG2	-20.502	3.485	-11.704	C.3	11	THR474	0.000	
74	 OG1	-20.235	3.369	-14.081	O.3	11	THR474	0.000	
75	   N	-23.140	2.417	-15.013	N.am	12	GLU475	0.000	
76	  CA	-23.535	2.520	-16.398	C.3	12	GLU475	0.000	
77	   C	-22.258	2.779	-17.237	C.2	12	GLU475	0.000	
78	   O	-21.374	3.554	-16.811	O.2	12	GLU475	0.000	
79	  CB	-24.413	3.783	-16.444	C.3	12	GLU475	0.000	
80	  CG	-24.914	4.162	-17.799	C.3	12	GLU475	0.000	
81	  CD	-26.001	5.215	-17.738	C.2	12	GLU475	0.000	
82	 OE1	-26.370	5.731	-16.645	O.co2	12	GLU475	0.000	
83	 OE2	-26.573	5.420	-18.824	O.co2	12	GLU475	0.000	
84	   N	-22.186	2.158	-18.404	N.am	13	TYR476	0.000	
85	  CA	-21.076	2.341	-19.323	C.3	13	TYR476	0.000	
86	   C	-21.373	3.515	-20.272	C.2	13	TYR476	0.000	
87	   O	-22.465	3.578	-20.858	O.2	13	TYR476	0.000	
88	  CB	-20.830	1.072	-20.111	C.3	13	TYR476	0.000	
89	  CG	-19.725	1.178	-21.140	C.2	13	TYR476	0.000	
90	 CD1	-18.430	1.531	-20.773	C.2	13	TYR476	0.000	
91	 CD2	-19.975	0.926	-22.478	C.2	13	TYR476	0.000	
92	 CE1	-17.423	1.682	-21.727	C.2	13	TYR476	0.000	
93	 CE2	-18.963	1.021	-23.433	C.2	13	TYR476	0.000	
94	  CZ	-17.691	1.395	-23.051	C.2	13	TYR476	0.000	
95	  OH	-16.707	1.484	-24.004	O.3	13	TYR476	0.000	
96	   N	-20.391	4.411	-20.426	N.am	14	MET477	0.000	
97	  CA	-20.567	5.636	-21.253	C.3	14	MET477	0.000	
98	   C	-19.481	5.612	-22.301	C.2	14	MET477	0.000	
99	   O	-18.339	5.978	-22.071	O.2	14	MET477	0.000	
100	  CB	-20.401	6.846	-20.313	C.3	14	MET477	0.000	
101	  CG	-21.440	6.894	-19.167	C.3	14	MET477	0.000	
102	  SD	-23.123	7.173	-19.768	S.3	14	MET477	0.000	
103	  CE	-22.996	8.889	-20.167	C.3	14	MET477	0.000	
104	   N	-19.828	5.065	-23.471	N.am	15	ALA478	0.000	
105	  CA	-18.841	4.685	-24.483	C.3	15	ALA478	0.000	
106	   C	-17.962	5.793	-24.987	C.2	15	ALA478	0.000	
107	   O	-16.828	5.516	-25.378	O.2	15	ALA478	0.000	
108	  CB	-19.529	4.000	-25.660	C.3	15	ALA478	0.000	
109	   N	-16.818	8.369	-23.239	N.am	16	GLY480	0.000	
110	  CA	-15.890	8.839	-22.235	C.3	16	GLY480	0.000	
111	   C	-16.133	10.217	-21.681	C.2	16	GLY480	0.000	
112	   O	-17.255	10.715	-21.699	O.2	16	GLY480	0.000	
113	   N	-15.096	10.774	-21.113	N.am	17	CYS481	0.000	
114	  CA	-15.121	12.026	-20.414	C.3	17	CYS481	0.000	
115	   C	-15.541	13.194	-21.326	C.2	17	CYS481	0.000	
116	   O	-15.015	13.342	-22.428	O.2	17	CYS481	0.000	
117	  CB	-13.731	12.230	-19.823	C.3	17	CYS481	0.000	
118	  SG	-13.454	13.829	-19.066	S.3	17	CYS481	0.000	
119	   N	-12.592	15.577	-22.647	N.am	18	ASN484	0.000	
120	  CA	-11.847	15.076	-23.798	C.3	18	ASN484	0.000	
121	   C	-12.684	15.142	-25.052	C.2	18	ASN484	0.000	
122	   O	-12.149	15.422	-26.133	O.2	18	ASN484	0.000	
123	  CB	-11.331	13.679	-23.531	C.3	18	ASN484	0.000	
124	  CG	-10.134	13.722	-22.612	C.2	18	ASN484	0.000	
125	 ND2	-9.266	12.757	-22.750	N.pl3	18	ASN484	0.000	
126	 OD1	-9.890	14.696	-21.887	O.2	18	ASN484	0.000	
127	   N	-19.772	12.409	-18.369	N.am	19	LEU528	0.000	
128	  CA	-19.459	11.359	-19.341	C.3	19	LEU528	0.000	
129	   C	-20.414	11.456	-20.515	C.2	19	LEU528	0.000	
130	   O	-21.497	12.030	-20.406	O.2	19	LEU528	0.000	
131	  CB	-19.539	9.973	-18.676	C.3	19	LEU528	0.000	
132	  CG	-18.459	9.685	-17.625	C.3	19	LEU528	0.000	
133	 CD1	-18.818	8.494	-16.763	C.3	19	LEU528	0.000	
134	 CD2	-17.090	9.433	-18.296	C.3	19	LEU528	0.000	
135	   N	-21.525	12.575	-13.541	N.am	20	SER538	0.000	
136	  CA	-20.846	11.447	-12.916	C.3	20	SER538	0.000	
137	   C	-20.068	11.919	-11.669	C.2	20	SER538	0.000	
138	   O	-19.925	13.117	-11.418	O.2	20	SER538	0.000	
139	  CB	-19.895	10.839	-13.944	C.3	20	SER538	0.000	
140	  OG	-19.321	9.638	-13.455	O.3	20	SER538	0.000	
141	   N	-19.565	10.936	-10.886	N.am	21	ASP539	0.000	
142	  CA	-18.746	11.153	-9.683	C.3	21	ASP539	0.000	
143	   C	-19.446	12.066	-8.684	C.2	21	ASP539	0.000	
144	   O	-18.796	12.749	-7.878	O.2	21	ASP539	0.000	
145	  CB	-17.330	11.630	-10.061	C.3	21	ASP539	0.000	
146	  CG	-16.373	10.508	-10.448	C.2	21	ASP539	0.000	
147	 OD1	-16.763	9.316	-10.348	O.co2	21	ASP539	0.000	
148	 OD2	-15.197	10.813	-10.758	O.co2	21	ASP539	0.000	
149	   N	-20.768	12.058	-8.674	N.am	22	PHE540	0.000	
150	  CA	-21.525	12.990	-7.820	C.3	22	PHE540	0.000	
151	   C	-21.296	12.689	-6.347	C.2	22	PHE540	0.000	
152	   O	-21.486	11.538	-5.899	O.2	22	PHE540	0.000	
153	  CB	-23.027	13.019	-8.186	C.3	22	PHE540	0.000	
154	  CG	-23.590	11.684	-8.591	C.2	22	PHE540	0.000	
155	 CD1	-23.534	11.262	-9.915	C.2	22	PHE540	0.000	
156	 CD2	-24.212	10.864	-7.666	C.2	22	PHE540	0.000	
157	 CE1	-24.017	10.013	-10.292	C.2	22	PHE540	0.000	
158	 CE2	-24.750	9.630	-8.058	C.2	22	PHE540	0.000	
159	  CZ	-24.638	9.205	-9.376	C.2	22	PHE540	0.000	
160	   N	-18.653	12.325	-4.719	N.am	23	LEU542	0.000	
161	  CA	-17.540	11.444	-4.395	C.3	23	LEU542	0.000	
162	   C	-16.393	12.135	-3.708	C.2	23	LEU542	0.000	
163	   O	-15.632	11.464	-3.014	O.2	23	LEU542	0.000	
164	  CB	-17.052	10.772	-5.702	C.3	23	LEU542	0.000	
165	  CG	-16.361	9.420	-5.615	C.3	23	LEU542	0.000	
166	 CD1	-17.233	8.385	-4.895	C.3	23	LEU542	0.000	
167	 CD2	-16.023	8.908	-7.013	C.3	23	LEU542	0.000	
@<TRIPOS>BOND
1 1 2 1
2 2 3 1
3 2 5 1
4 3 4 2
5 3 9 1
6 5 6 1
7 6 7 1
8 6 8 1
9 9 10 1
10 10 11 1
11 11 12 2
12 11 13 1
13 13 14 1
14 14 15 1
15 14 17 1
16 15 16 2
17 15 20 1
18 17 18 1
19 17 19 1
20 20 21 1
21 21 22 1
22 22 23 2
23 24 25 1
24 25 26 1
25 25 28 1
26 26 27 2
27 28 29 1
28 28 30 1
29 31 32 1
30 32 33 1
31 32 35 1
32 33 34 2
33 36 37 1
34 37 38 1
35 37 40 1
36 38 39 2
37 40 41 1
38 41 42 1
39 42 43 1
40 43 44 1
41 45 46 1
42 46 47 1
43 46 49 1
44 47 48 2
45 49 50 1
46 50 51 1
47 51 52 1
48 53 54 1
49 54 55 1
50 54 57 1
51 55 56 2
52 57 58 1
53 57 59 1
54 60 61 1
55 61 62 1
56 61 64 1
57 62 63 2
58 64 65 1
59 64 66 1
60 65 67 1
61 68 69 1
62 69 70 1
63 69 72 1
64 70 71 2
65 70 75 1
66 72 73 1
67 72 74 1
68 75 76 1
69 76 77 1
70 76 79 1
71 77 78 2
72 77 84 1
73 79 80 1
74 80 81 1
75 81 82 2
76 81 83 1
77 84 85 1
78 85 86 1
79 85 88 1
80 86 87 2
81 86 96 1
82 88 89 1
83 89 90 2
84 89 91 1
85 90 92 1
86 91 93 2
87 92 94 2
88 93 94 1
89 94 95 1
90 96 97 1
91 97 98 1
92 97 100 1
93 98 99 2
94 98 104 1
95 100 101 1
96 101 102 1
97 102 103 1
98 104 105 1
99 105 106 1
100 105 108 1
101 106 107 2
102 109 110 1
103 110 111 1
104 111 112 2
105 111 113 1
106 113 114 1
107 114 115 1
108 114 117 1
109 115 116 2
110 117 118 1
111 119 120 1
112 120 121 1
113 120 123 1
114 121 122 2
115 123 124 1
116 124 125 1
117 124 126 2
118 127 128 1
119 128 129 1
120 128 131 1
121 129 130 2
122 131 132 1
123 132 133 1
124 132 134 1
125 135 136 1
126 136 137 1
127 136 139 1
128 137 138 2
129 137 141 1
130 139 140 1
131 141 142 1
132 142 143 1
133 142 145 1
134 143 144 2
135 143 149 1
136 145 146 1
137 146 147 2
138 146 148 1
139 149 150 1
140 150 151 1
141 150 153 1
142 151 152 2
143 153 154 1
144 154 155 2
145 154 156 1
146 155 157 1
147 156 158 2
148 157 159 2
149 158 159 1
150 160 161 1
151 161 162 1
152 161 164 1
153 162 163 2
154 164 165 1
155 165 166 1
156 165 167 1
@<TRIPOS>SUBSTRUCTURE
1	LEU408	1	RESIDUE	1 B	LEU
2	GLY409	9	RESIDUE	1 B	GLY
3	THR410	13	RESIDUE	1 B	THR
4	GLY411	20	RESIDUE	1 B	GLY
5	VAL416	24	RESIDUE	1 B	VAL
6	ALA428	31	RESIDUE	1 B	ALA
7	LYS430	36	RESIDUE	1 B	LYS
8	MET449	45	RESIDUE	1 B	MET
9	VAL458	53	RESIDUE	1 B	VAL
10	ILE472	60	RESIDUE	1 B	ILE
11	THR474	68	RESIDUE	1 B	THR
12	GLU475	75	RESIDUE	1 B	GLU
13	TYR476	84	RESIDUE	1 B	TYR
14	MET477	96	RESIDUE	1 B	MET
15	ALA478	104	RESIDUE	1 B	ALA
16	GLY480	109	RESIDUE	1 B	GLY
17	CYS481	113	RESIDUE	1 B	CYS
18	ASN484	119	RESIDUE	1 B	ASN
19	LEU528	127	RESIDUE	1 B	LEU
20	SER538	135	RESIDUE	1 B	SER
21	ASP539	141	RESIDUE	1 B	ASP
22	PHE540	149	RESIDUE	1 B	PHE
23	LEU542	160	RESIDUE	1 B	LEU
