# created with PyMOL 2.5.2
@<TRIPOS>MOLECULE
KIT_3G0E_TargetProtein
151 144 20              
SMALL
USER_CHARGES
@<TRIPOS>ATOM
1	   N	29.416	-0.005	-87.340	N.am	1	LYS593	0.000	
2	  CA	30.499	0.899	-86.969	C.3	1	LYS593	0.000	
3	   C	31.730	0.145	-86.481	C.2	1	LYS593	0.000	
4	   O	31.631	-0.948	-85.924	O.2	1	LYS593	0.000	
5	  CB	30.032	1.868	-85.879	C.3	1	LYS593	0.000	
6	  CG	29.939	1.260	-84.486	C.3	1	LYS593	0.000	
7	  CD	29.363	2.254	-83.484	C.3	1	LYS593	0.000	
8	  CE	29.307	1.659	-82.085	C.3	1	LYS593	0.000	
9	  NZ	28.691	2.589	-81.096	N.4	1	LYS593	0.000	
10	   N	34.570	-0.600	-83.915	N.am	2	LEU595	0.000	
11	  CA	34.711	-0.501	-82.471	C.3	2	LEU595	0.000	
12	   C	36.152	-0.164	-82.101	C.2	2	LEU595	0.000	
13	   O	36.401	0.599	-81.168	O.2	2	LEU595	0.000	
14	  CB	34.288	-1.820	-81.820	C.3	2	LEU595	0.000	
15	  CG	32.837	-2.210	-82.112	C.3	2	LEU595	0.000	
16	 CD1	32.530	-3.578	-81.527	C.3	2	LEU595	0.000	
17	 CD2	31.912	-1.149	-81.534	C.3	2	LEU595	0.000	
18	   N	37.093	-0.740	-82.842	N.am	3	GLY596	0.000	
19	  CA	38.498	-0.428	-82.653	C.3	3	GLY596	0.000	
20	   C	39.308	-0.961	-83.817	C.2	3	GLY596	0.000	
21	   O	39.013	-2.035	-84.342	O.2	3	GLY596	0.000	
22	   N	37.928	-4.520	-85.305	N.am	4	VAL603	0.000	
23	  CA	36.724	-5.181	-84.820	C.3	4	VAL603	0.000	
24	   C	35.538	-4.250	-85.064	C.2	4	VAL603	0.000	
25	   O	35.597	-3.061	-84.740	O.2	4	VAL603	0.000	
26	  CB	36.843	-5.492	-83.318	C.3	4	VAL603	0.000	
27	 CG1	35.590	-6.214	-82.834	C.3	4	VAL603	0.000	
28	 CG2	38.095	-6.345	-83.060	C.3	4	VAL603	0.000	
29	   N	30.151	-8.709	-82.354	N.am	5	ALA621	0.000	
30	  CA	31.395	-8.063	-82.755	C.3	5	ALA621	0.000	
31	   C	32.113	-8.990	-83.730	C.2	5	ALA621	0.000	
32	   O	32.228	-10.188	-83.478	O.2	5	ALA621	0.000	
33	  CB	32.266	-7.810	-81.527	C.3	5	ALA621	0.000	
34	   N	35.674	-9.726	-85.783	N.am	6	LYS623	0.000	
35	  CA	37.101	-9.449	-85.929	C.3	6	LYS623	0.000	
36	   C	37.557	-9.809	-87.341	C.2	6	LYS623	0.000	
37	   O	37.222	-10.880	-87.853	O.2	6	LYS623	0.000	
38	  CB	37.904	-10.268	-84.921	C.3	6	LYS623	0.000	
39	  CG	37.357	-10.218	-83.497	C.3	6	LYS623	0.000	
40	  CD	38.255	-10.973	-82.541	C.3	6	LYS623	0.000	
41	  CE	39.495	-10.159	-82.195	C.3	6	LYS623	0.000	
42	  NZ	40.293	-10.822	-81.125	N.4	6	LYS623	0.000	
43	   N	34.749	-12.625	-73.079	N.am	7	VAL654	0.000	
44	  CA	34.094	-12.381	-74.359	C.3	7	VAL654	0.000	
45	   C	34.093	-13.685	-75.157	C.2	7	VAL654	0.000	
46	   O	35.148	-14.180	-75.555	O.2	7	VAL654	0.000	
47	  CB	34.840	-11.283	-75.154	C.3	7	VAL654	0.000	
48	 CG1	34.211	-11.112	-76.529	C.3	7	VAL654	0.000	
49	 CG2	34.798	-9.968	-74.383	C.3	7	VAL654	0.000	
50	   N	32.322	-12.706	-82.281	N.am	8	THR670	0.000	
51	  CA	32.330	-12.810	-80.823	C.3	8	THR670	0.000	
52	   C	31.244	-11.947	-80.200	C.2	8	THR670	0.000	
53	   O	30.543	-11.211	-80.895	O.2	8	THR670	0.000	
54	  CB	33.672	-12.358	-80.226	C.3	8	THR670	0.000	
55	 CG2	34.827	-13.076	-80.904	C.3	8	THR670	0.000	
56	 OG1	33.818	-10.943	-80.412	O.3	8	THR670	0.000	
57	   N	31.124	-12.026	-78.880	N.am	9	GLU671	0.000	
58	  CA	30.105	-11.265	-78.179	C.3	9	GLU671	0.000	
59	   C	30.365	-9.768	-78.243	C.2	9	GLU671	0.000	
60	   O	31.509	-9.311	-78.146	O.2	9	GLU671	0.000	
61	  CB	30.008	-11.737	-76.724	C.3	9	GLU671	0.000	
62	  CG	29.278	-13.071	-76.603	C.3	9	GLU671	0.000	
63	  CD	29.267	-13.640	-75.198	C.2	9	GLU671	0.000	
64	 OE1	30.241	-13.420	-74.447	O.co2	9	GLU671	0.000	
65	 OE2	28.276	-14.321	-74.849	O.co2	9	GLU671	0.000	
66	   N	29.284	-9.017	-78.428	N.am	10	TYR672	0.000	
67	  CA	29.305	-7.564	-78.410	C.3	10	TYR672	0.000	
68	   C	29.011	-7.115	-76.986	C.2	10	TYR672	0.000	
69	   O	28.056	-7.587	-76.364	O.2	10	TYR672	0.000	
70	  CB	28.230	-7.028	-79.366	C.3	10	TYR672	0.000	
71	  CG	28.051	-5.528	-79.356	C.2	10	TYR672	0.000	
72	 CD1	28.929	-4.698	-80.042	C.2	10	TYR672	0.000	
73	 CD2	26.972	-4.945	-78.700	C.2	10	TYR672	0.000	
74	 CE1	28.735	-3.325	-80.079	C.2	10	TYR672	0.000	
75	 CE2	26.768	-3.576	-78.734	C.2	10	TYR672	0.000	
76	  CZ	27.651	-2.773	-79.425	C.2	10	TYR672	0.000	
77	  OH	27.438	-1.413	-79.480	O.3	10	TYR672	0.000	
78	   N	29.836	-6.209	-76.471	N.am	11	CYS673	0.000	
79	  CA	29.671	-5.728	-75.108	C.3	11	CYS673	0.000	
80	   C	29.301	-4.249	-75.141	C.2	11	CYS673	0.000	
81	   O	30.149	-3.389	-75.384	O.2	11	CYS673	0.000	
82	  CB	30.962	-5.958	-74.320	C.3	11	CYS673	0.000	
83	  SG	31.382	-7.709	-74.172	S.3	11	CYS673	0.000	
84	   N	28.025	-3.967	-74.891	N.am	12	CYS674	0.000	
85	  CA	27.422	-2.689	-75.255	C.3	12	CYS674	0.000	
86	   C	27.993	-1.455	-74.553	C.2	12	CYS674	0.000	
87	   O	27.877	-0.346	-75.068	O.2	12	CYS674	0.000	
88	  CB	25.903	-2.744	-75.028	C.3	12	CYS674	0.000	
89	  SG	25.390	-3.184	-73.348	S.3	12	CYS674	0.000	
90	   N	28.604	-1.634	-73.387	N.am	13	TYR675	0.000	
91	  CA	29.106	-0.480	-72.649	C.3	13	TYR675	0.000	
92	   C	30.582	-0.197	-72.902	C.2	13	TYR675	0.000	
93	   O	31.141	0.745	-72.347	O.2	13	TYR675	0.000	
94	  CB	28.864	-0.663	-71.149	C.3	13	TYR675	0.000	
95	  CG	27.408	-0.850	-70.800	C.2	13	TYR675	0.000	
96	 CD1	26.991	-1.940	-70.051	C.2	13	TYR675	0.000	
97	 CD2	26.445	0.043	-71.254	C.2	13	TYR675	0.000	
98	 CE1	25.655	-2.145	-69.768	C.2	13	TYR675	0.000	
99	 CE2	25.101	-0.153	-70.974	C.2	13	TYR675	0.000	
100	  CZ	24.715	-1.251	-70.234	C.2	13	TYR675	0.000	
101	  OH	23.381	-1.477	-69.981	O.3	13	TYR675	0.000	
102	   N	31.217	-1.011	-73.740	N.am	14	GLY676	0.000	
103	  CA	32.608	-0.756	-74.085	C.3	14	GLY676	0.000	
104	   C	33.584	-1.196	-73.009	C.2	14	GLY676	0.000	
105	   O	33.279	-2.083	-72.214	O.2	14	GLY676	0.000	
106	   N	34.761	-0.580	-72.975	N.am	15	ASP677	0.000	
107	  CA	35.800	-1.023	-72.051	C.3	15	ASP677	0.000	
108	   C	35.615	-0.461	-70.647	C.2	15	ASP677	0.000	
109	   O	35.079	0.636	-70.464	O.2	15	ASP677	0.000	
110	  CB	37.187	-0.645	-72.578	C.3	15	ASP677	0.000	
111	  CG	37.439	0.846	-72.542	C.2	15	ASP677	0.000	
112	 OD1	38.121	1.317	-71.604	O.co2	15	ASP677	0.000	
113	 OD2	36.957	1.547	-73.453	O.co2	15	ASP677	0.000	
114	   N	35.750	-5.707	-70.902	N.am	16	LEU799	0.000	
115	  CA	34.579	-5.043	-71.454	C.3	16	LEU799	0.000	
116	   C	33.390	-5.222	-70.520	C.2	16	LEU799	0.000	
117	   O	33.406	-6.086	-69.642	O.2	16	LEU799	0.000	
118	  CB	34.255	-5.612	-72.840	C.3	16	LEU799	0.000	
119	  CG	35.415	-5.585	-73.838	C.3	16	LEU799	0.000	
120	 CD1	34.942	-6.124	-75.180	C.3	16	LEU799	0.000	
121	 CD2	35.938	-4.166	-73.994	C.3	16	LEU799	0.000	
122	   N	38.616	-9.656	-72.382	N.am	17	CYS809	0.000	
123	  CA	38.653	-9.597	-73.841	C.3	17	CYS809	0.000	
124	   C	40.081	-9.786	-74.346	C.2	17	CYS809	0.000	
125	   O	41.044	-9.456	-73.652	O.2	17	CYS809	0.000	
126	  CB	38.117	-8.237	-74.305	C.3	17	CYS809	0.000	
127	  SG	37.907	-8.005	-76.085	S.3	17	CYS809	0.000	
128	   N	40.207	-10.329	-75.554	N.am	18	ASP810	0.000	
129	  CA	41.443	-10.227	-76.320	C.3	18	ASP810	0.000	
130	   C	41.275	-9.048	-77.273	C.2	18	ASP810	0.000	
131	   O	40.646	-9.166	-78.329	O.2	18	ASP810	0.000	
132	  CB	41.680	-11.514	-77.111	C.3	18	ASP810	0.000	
133	  CG	42.819	-11.388	-78.107	C.2	18	ASP810	0.000	
134	 OD1	43.607	-10.420	-78.010	O.co2	18	ASP810	0.000	
135	 OD2	42.919	-12.262	-78.993	O.co2	18	ASP810	0.000	
136	   N	41.832	-7.905	-76.886	N.am	19	PHE811	0.000	
137	  CA	41.545	-6.646	-77.557	C.3	19	PHE811	0.000	
138	   C	42.629	-6.308	-78.580	C.2	19	PHE811	0.000	
139	   O	42.526	-5.309	-79.285	O.2	19	PHE811	0.000	
140	  CB	41.438	-5.525	-76.511	C.3	19	PHE811	0.000	
141	  CG	40.659	-4.323	-76.972	C.2	19	PHE811	0.000	
142	 CD1	39.281	-4.276	-76.824	C.2	19	PHE811	0.000	
143	 CD2	41.303	-3.230	-77.532	C.2	19	PHE811	0.000	
144	 CE1	38.562	-3.165	-77.223	C.2	19	PHE811	0.000	
145	 CE2	40.590	-2.116	-77.935	C.2	19	PHE811	0.000	
146	  CZ	39.213	-2.085	-77.779	C.2	19	PHE811	0.000	
147	   N	42.193	-4.765	-81.965	N.am	20	ALA814	0.000	
148	  CA	41.352	-3.570	-81.987	C.3	20	ALA814	0.000	
149	   C	42.065	-2.278	-81.573	C.2	20	ALA814	0.000	
150	   O	41.423	-1.240	-81.416	O.2	20	ALA814	0.000	
151	  CB	40.123	-3.787	-81.096	C.3	20	ALA814	0.000	
@<TRIPOS>BOND
1 1 2 1
2 2 3 1
3 2 5 1
4 3 4 2
5 5 6 1
6 6 7 1
7 7 8 1
8 8 9 1
9 10 11 1
10 11 12 1
11 11 14 1
12 12 13 2
13 12 18 1
14 14 15 1
15 15 16 1
16 15 17 1
17 18 19 1
18 19 20 1
19 20 21 2
20 22 23 1
21 23 24 1
22 23 26 1
23 24 25 2
24 26 27 1
25 26 28 1
26 29 30 1
27 30 31 1
28 30 33 1
29 31 32 2
30 34 35 1
31 35 36 1
32 35 38 1
33 36 37 2
34 38 39 1
35 39 40 1
36 40 41 1
37 41 42 1
38 43 44 1
39 44 45 1
40 44 47 1
41 45 46 2
42 47 48 1
43 47 49 1
44 50 51 1
45 51 52 1
46 51 54 1
47 52 53 2
48 52 57 1
49 54 55 1
50 54 56 1
51 57 58 1
52 58 59 1
53 58 61 1
54 59 60 2
55 59 66 1
56 61 62 1
57 62 63 1
58 63 64 2
59 63 65 1
60 66 67 1
61 67 68 1
62 67 70 1
63 68 69 2
64 68 78 1
65 70 71 1
66 71 72 2
67 71 73 1
68 72 74 1
69 73 75 2
70 74 76 2
71 75 76 1
72 76 77 1
73 78 79 1
74 79 80 1
75 79 82 1
76 80 81 2
77 80 84 1
78 82 83 1
79 84 85 1
80 85 86 1
81 85 88 1
82 86 87 2
83 86 90 1
84 88 89 1
85 90 91 1
86 91 92 1
87 91 94 1
88 92 93 2
89 92 102 1
90 94 95 1
91 95 96 2
92 95 97 1
93 96 98 1
94 97 99 2
95 98 100 2
96 99 100 1
97 100 101 1
98 102 103 1
99 103 104 1
100 104 105 2
101 104 106 1
102 106 107 1
103 107 108 1
104 107 110 1
105 108 109 2
106 110 111 1
107 111 112 2
108 111 113 1
109 114 115 1
110 115 116 1
111 115 118 1
112 116 117 2
113 118 119 1
114 119 120 1
115 119 121 1
116 122 123 1
117 123 124 1
118 123 126 1
119 124 125 2
120 124 128 1
121 126 127 1
122 128 129 1
123 129 130 1
124 129 132 1
125 130 131 2
126 130 136 1
127 132 133 1
128 133 134 2
129 133 135 1
130 136 137 1
131 137 138 1
132 137 140 1
133 138 139 2
134 140 141 1
135 141 142 2
136 141 143 1
137 142 144 1
138 143 145 2
139 144 146 2
140 145 146 1
141 147 148 1
142 148 149 1
143 148 151 1
144 149 150 2
@<TRIPOS>SUBSTRUCTURE
1	LYS593	1	RESIDUE	1 B	LYS
2	LEU595	10	RESIDUE	1 B	LEU
3	GLY596	18	RESIDUE	1 B	GLY
4	VAL603	22	RESIDUE	1 B	VAL
5	ALA621	29	RESIDUE	1 B	ALA
6	LYS623	34	RESIDUE	1 B	LYS
7	VAL654	43	RESIDUE	1 B	VAL
8	THR670	50	RESIDUE	1 B	THR
9	GLU671	57	RESIDUE	1 B	GLU
10	TYR672	66	RESIDUE	1 B	TYR
11	CYS673	78	RESIDUE	1 B	CYS
12	CYS674	84	RESIDUE	1 B	CYS
13	TYR675	90	RESIDUE	1 B	TYR
14	GLY676	102	RESIDUE	1 B	GLY
15	ASP677	106	RESIDUE	1 B	ASP
16	LEU799	114	RESIDUE	1 B	LEU
17	CYS809	122	RESIDUE	1 B	CYS
18	ASP810	128	RESIDUE	1 B	ASP
19	PHE811	136	RESIDUE	1 B	PHE
20	ALA814	147	RESIDUE	1 B	ALA
