# created with PyMOL 2.5.2
@<TRIPOS>MOLECULE
BRD2_4ALH_TargetProtein
135 131 15              
SMALL
USER_CHARGES
@<TRIPOS>ATOM
1	   N	6.079	8.849	17.059	N.am	1	TRP97	0.000	
2	  CA	6.430	8.289	18.370	C.3	1	TRP97	0.000	
3	   C	5.531	7.168	18.896	C.2	1	TRP97	0.000	
4	   O	6.045	6.194	19.432	O.2	1	TRP97	0.000	
5	  CB	6.668	9.388	19.419	C.3	1	TRP97	0.000	
6	  CG	5.437	10.154	19.818	C.2	1	TRP97	0.000	
7	 CD1	4.968	11.353	19.285	C.2	1	TRP97	0.000	
8	 CD2	4.472	9.789	20.856	C.2	1	TRP97	0.000	
9	 CE2	3.455	10.839	20.858	C.2	1	TRP97	0.000	
10	 CE3	4.345	8.726	21.740	C.2	1	TRP97	0.000	
11	 NE1	3.804	11.737	19.907	N.pl3	1	TRP97	0.000	
12	 CZ2	2.373	10.808	21.721	C.2	1	TRP97	0.000	
13	 CZ3	3.252	8.711	22.611	C.2	1	TRP97	0.000	
14	 CH2	2.292	9.729	22.603	C.2	1	TRP97	0.000	
15	   N	4.192	7.255	18.723	N.am	2	PRO98	0.000	
16	  CA	3.375	6.128	19.222	C.3	2	PRO98	0.000	
17	   C	3.580	4.806	18.469	C.2	2	PRO98	0.000	
18	   O	3.222	3.744	18.983	O.2	2	PRO98	0.000	
19	  CB	1.930	6.618	19.009	C.3	2	PRO98	0.000	
20	  CG	2.045	8.105	18.850	C.3	2	PRO98	0.000	
21	  CD	3.340	8.285	18.115	C.3	2	PRO98	0.000	
22	   N	4.138	4.884	17.264	N.am	3	PHE99	0.000	
23	  CA	4.317	3.738	16.395	C.3	3	PHE99	0.000	
24	   C	5.723	3.154	16.398	C.2	3	PHE99	0.000	
25	   O	5.940	2.136	15.768	O.2	3	PHE99	0.000	
26	  CB	3.956	4.131	14.966	C.3	3	PHE99	0.000	
27	  CG	2.569	4.667	14.834	C.2	3	PHE99	0.000	
28	 CD1	1.496	3.811	14.621	C.2	3	PHE99	0.000	
29	 CD2	2.325	6.027	14.958	C.2	3	PHE99	0.000	
30	 CE1	0.207	4.313	14.506	C.2	3	PHE99	0.000	
31	 CE2	1.047	6.528	14.841	C.2	3	PHE99	0.000	
32	  CZ	-0.017	5.671	14.627	C.2	3	PHE99	0.000	
33	   N	7.388	1.614	18.683	N.am	4	GLN101	0.000	
34	  CA	7.534	0.403	19.491	C.3	4	GLN101	0.000	
35	   C	6.157	-0.244	19.624	C.2	4	GLN101	0.000	
36	   O	5.150	0.426	19.410	O.2	4	GLN101	0.000	
37	  CB	8.135	0.727	20.872	C.3	4	GLN101	0.000	
38	  CG	7.313	1.685	21.730	C.3	4	GLN101	0.000	
39	  CD	7.318	3.110	21.196	C.2	4	GLN101	0.000	
40	 NE2	6.126	3.661	20.929	N.pl3	4	GLN101	0.000	
41	 OE1	8.382	3.707	21.015	O.2	4	GLN101	0.000	
42	   N	2.578	-1.521	20.779	N.am	5	VAL103	0.000	
43	  CA	1.576	-1.053	21.724	C.3	5	VAL103	0.000	
44	   C	1.730	-1.805	23.048	C.2	5	VAL103	0.000	
45	   O	1.711	-3.035	23.079	O.2	5	VAL103	0.000	
46	  CB	0.155	-1.287	21.172	C.3	5	VAL103	0.000	
47	 CG1	-0.896	-0.903	22.207	C.3	5	VAL103	0.000	
48	 CG2	-0.031	-0.515	19.863	C.3	5	VAL103	0.000	
49	   N	0.702	-0.558	29.965	N.am	6	LYS107	0.000	
50	  CA	1.025	0.848	30.137	C.3	6	LYS107	0.000	
51	   C	-0.147	1.752	29.752	C.2	6	LYS107	0.000	
52	   O	-0.468	2.690	30.476	O.2	6	LYS107	0.000	
53	  CB	2.260	1.181	29.299	C.3	6	LYS107	0.000	
54	  CG	2.697	2.633	29.311	C.3	6	LYS107	0.000	
55	  CD	4.038	2.757	28.607	C.3	6	LYS107	0.000	
56	  CE	4.224	4.101	27.935	C.3	6	LYS107	0.000	
57	  NZ	5.394	4.063	27.011	N.4	6	LYS107	0.000	
58	   N	-0.794	1.458	28.623	N.am	7	LEU108	0.000	
59	  CA	-1.884	2.303	28.132	C.3	7	LEU108	0.000	
60	   C	-3.248	1.989	28.761	C.2	7	LEU108	0.000	
61	   O	-4.233	2.678	28.475	O.2	7	LEU108	0.000	
62	  CB	-1.982	2.201	26.607	C.3	7	LEU108	0.000	
63	  CG	-0.723	2.583	25.822	C.3	7	LEU108	0.000	
64	 CD1	-0.911	2.323	24.337	C.3	7	LEU108	0.000	
65	 CD2	-0.344	4.033	26.058	C.3	7	LEU108	0.000	
66	   N	-5.197	-0.818	28.344	N.am	8	LEU110	0.000	
67	  CA	-6.065	-1.327	27.283	C.3	8	LEU110	0.000	
68	   C	-6.170	-2.857	27.363	C.2	8	LEU110	0.000	
69	   O	-5.592	-3.559	26.538	O.2	8	LEU110	0.000	
70	  CB	-5.509	-0.913	25.915	C.3	8	LEU110	0.000	
71	  CG	-5.170	0.562	25.685	C.3	8	LEU110	0.000	
72	 CD1	-4.434	0.720	24.359	C.3	8	LEU110	0.000	
73	 CD2	-6.399	1.457	25.733	C.3	8	LEU110	0.000	
74	   N	-6.889	-4.920	24.136	N.am	9	TYR113	0.000	
75	  CA	-6.126	-4.648	22.916	C.3	9	TYR113	0.000	
76	   C	-5.768	-5.939	22.174	C.2	9	TYR113	0.000	
77	   O	-6.036	-6.071	20.981	O.2	9	TYR113	0.000	
78	  CB	-4.859	-3.812	23.182	C.3	9	TYR113	0.000	
79	  CG	-4.166	-3.469	21.887	C.2	9	TYR113	0.000	
80	 CD1	-4.628	-2.423	21.081	C.2	9	TYR113	0.000	
81	 CD2	-3.084	-4.224	21.427	C.2	9	TYR113	0.000	
82	 CE1	-4.019	-2.124	19.870	C.2	9	TYR113	0.000	
83	 CE2	-2.473	-3.933	20.213	C.2	9	TYR113	0.000	
84	  CZ	-2.944	-2.882	19.439	C.2	9	TYR113	0.000	
85	  OH	-2.340	-2.594	18.231	O.3	9	TYR113	0.000	
86	   N	-4.487	0.093	13.967	N.am	10	CYS152	0.000	
87	  CA	-4.817	1.352	14.614	C.3	10	CYS152	0.000	
88	   C	-6.248	1.807	14.291	C.2	10	CYS152	0.000	
89	   O	-6.992	2.252	15.188	O.2	10	CYS152	0.000	
90	  CB	-3.777	2.421	14.221	C.3	10	CYS152	0.000	
91	  SG	-4.051	4.044	14.949	S.3	10	CYS152	0.000	
92	   N	-8.840	-0.836	16.047	N.am	11	TYR155	0.000	
93	  CA	-8.928	-0.801	17.498	C.3	11	TYR155	0.000	
94	   C	-9.517	0.494	18.055	C.2	11	TYR155	0.000	
95	   O	-10.322	0.464	18.981	O.2	11	TYR155	0.000	
96	  CB	-7.565	-1.043	18.171	C.3	11	TYR155	0.000	
97	  CG	-7.722	-0.990	19.670	C.2	11	TYR155	0.000	
98	 CD1	-8.352	-2.025	20.348	C.2	11	TYR155	0.000	
99	 CD2	-7.337	0.132	20.399	C.2	11	TYR155	0.000	
100	 CE1	-8.558	-1.967	21.711	C.2	11	TYR155	0.000	
101	 CE2	-7.531	0.193	21.773	C.2	11	TYR155	0.000	
102	  CZ	-8.146	-0.863	22.422	C.2	11	TYR155	0.000	
103	  OH	-8.362	-0.822	23.782	O.3	11	TYR155	0.000	
104	   N	-9.086	1.633	17.521	N.am	12	ASN156	0.000	
105	  CA	-9.402	2.922	18.136	C.3	12	ASN156	0.000	
106	   C	-10.755	3.479	17.695	C.2	12	ASN156	0.000	
107	   O	-11.348	3.009	16.726	O.2	12	ASN156	0.000	
108	  CB	-8.263	3.911	17.860	C.3	12	ASN156	0.000	
109	  CG	-6.974	3.496	18.535	C.2	12	ASN156	0.000	
110	 ND2	-6.032	2.943	17.762	N.pl3	12	ASN156	0.000	
111	 OD1	-6.837	3.636	19.751	O.2	12	ASN156	0.000	
112	   N	-7.276	10.912	18.368	N.am	13	ASP161	0.000	
113	  CA	-6.165	11.597	17.705	C.3	13	ASP161	0.000	
114	   C	-5.221	10.640	17.003	C.2	13	ASP161	0.000	
115	   O	-4.661	10.982	15.969	O.2	13	ASP161	0.000	
116	  CB	-5.342	12.398	18.711	C.3	13	ASP161	0.000	
117	  CG	-6.074	13.618	19.227	C.2	13	ASP161	0.000	
118	 OD1	-7.189	13.913	18.755	O.co2	13	ASP161	0.000	
119	 OD2	-5.519	14.276	20.113	O.co2	13	ASP161	0.000	
120	   N	-5.032	9.452	17.579	N.am	14	ILE162	0.000	
121	  CA	-4.091	8.463	17.028	C.3	14	ILE162	0.000	
122	   C	-4.482	8.074	15.596	C.2	14	ILE162	0.000	
123	   O	-3.617	7.772	14.768	O.2	14	ILE162	0.000	
124	  CB	-3.963	7.212	17.941	C.3	14	ILE162	0.000	
125	 CG1	-2.779	6.317	17.528	C.3	14	ILE162	0.000	
126	 CG2	-5.263	6.401	17.963	C.3	14	ILE162	0.000	
127	 CD1	-1.411	6.929	17.797	C.3	14	ILE162	0.000	
128	   N	-3.107	10.739	13.338	N.am	15	MET165	0.000	
129	  CA	-1.659	10.561	13.268	C.3	15	MET165	0.000	
130	   C	-1.289	9.438	12.295	C.2	15	MET165	0.000	
131	   O	-0.446	9.631	11.410	O.2	15	MET165	0.000	
132	  CB	-1.094	10.310	14.671	C.3	15	MET165	0.000	
133	  CG	-1.275	11.513	15.585	C.3	15	MET165	0.000	
134	  SD	-0.938	11.235	17.341	S.3	15	MET165	0.000	
135	  CE	0.850	11.363	17.361	C.3	15	MET165	0.000	
@<TRIPOS>BOND
1 1 2 1
2 2 3 1
3 2 5 1
4 3 4 2
5 3 15 1
6 5 6 1
7 6 7 2
8 6 8 1
9 7 11 1
10 8 9 2
11 8 10 1
12 9 12 1
13 10 13 2
14 9 11 1
15 12 14 2
16 13 14 1
17 15 16 1
18 15 21 1
19 16 17 1
20 16 19 1
21 17 18 2
22 17 22 1
23 19 20 1
24 20 21 1
25 22 23 1
26 23 24 1
27 23 26 1
28 24 25 2
29 26 27 1
30 27 28 2
31 27 29 1
32 28 30 1
33 29 31 2
34 30 32 2
35 31 32 1
36 33 34 1
37 34 35 1
38 34 37 1
39 35 36 2
40 37 38 1
41 38 39 1
42 39 40 1
43 39 41 2
44 42 43 1
45 43 44 1
46 43 46 1
47 44 45 2
48 46 47 1
49 46 48 1
50 49 50 1
51 50 51 1
52 50 53 1
53 51 52 2
54 51 58 1
55 53 54 1
56 54 55 1
57 55 56 1
58 56 57 1
59 58 59 1
60 59 60 1
61 59 62 1
62 60 61 2
63 62 63 1
64 63 64 1
65 63 65 1
66 66 67 1
67 67 68 1
68 67 70 1
69 68 69 2
70 70 71 1
71 71 72 1
72 71 73 1
73 74 75 1
74 75 76 1
75 75 78 1
76 76 77 2
77 78 79 1
78 79 80 2
79 79 81 1
80 80 82 1
81 81 83 2
82 82 84 2
83 83 84 1
84 84 85 1
85 86 87 1
86 87 88 1
87 87 90 1
88 88 89 2
89 90 91 1
90 92 93 1
91 93 94 1
92 93 96 1
93 94 95 2
94 94 104 1
95 96 97 1
96 97 98 2
97 97 99 1
98 98 100 1
99 99 101 2
100 100 102 2
101 101 102 1
102 102 103 1
103 104 105 1
104 105 106 1
105 105 108 1
106 106 107 2
107 108 109 1
108 109 110 1
109 109 111 2
110 112 113 1
111 113 114 1
112 113 116 1
113 114 115 2
114 114 120 1
115 116 117 1
116 117 118 2
117 117 119 1
118 120 121 1
119 121 122 1
120 121 124 1
121 122 123 2
122 124 125 1
123 124 126 1
124 125 127 1
125 128 129 1
126 129 130 1
127 129 132 1
128 130 131 2
129 132 133 1
130 133 134 1
131 134 135 1
@<TRIPOS>SUBSTRUCTURE
1	TRP97	1	RESIDUE	1 B	TRP
2	PRO98	15	RESIDUE	1 B	PRO
3	PHE99	22	RESIDUE	1 B	PHE
4	GLN101	33	RESIDUE	1 B	GLN
5	VAL103	42	RESIDUE	1 B	VAL
6	LYS107	49	RESIDUE	1 B	LYS
7	LEU108	58	RESIDUE	1 B	LEU
8	LEU110	66	RESIDUE	1 B	LEU
9	TYR113	74	RESIDUE	1 B	TYR
10	CYS152	86	RESIDUE	1 B	CYS
11	TYR155	92	RESIDUE	1 B	TYR
12	ASN156	104	RESIDUE	1 B	ASN
13	ASP161	112	RESIDUE	1 B	ASP
14	ILE162	120	RESIDUE	1 B	ILE
15	MET165	128	RESIDUE	1 B	MET
