# created with PyMOL 2.5.2
@<TRIPOS>MOLECULE
BRD4_6YQO_TargetProtein
134 130 15              
SMALL
USER_CHARGES
@<TRIPOS>ATOM
1	   N	22.505	21.934	1.150	N.am	1	TRP81	0.000	
2	  CA	22.294	20.579	1.660	C.3	1	TRP81	0.000	
3	   C	23.555	19.738	1.864	C.2	1	TRP81	0.000	
4	   O	23.622	19.032	2.886	O.2	1	TRP81	0.000	
5	  CB	21.195	19.850	0.865	C.3	1	TRP81	0.000	
6	  CG	21.494	19.674	-0.586	C.2	1	TRP81	0.000	
7	 CD1	21.167	20.531	-1.599	C.2	1	TRP81	0.000	
8	 CD2	22.197	18.584	-1.190	C.2	1	TRP81	0.000	
9	 CE2	22.260	18.847	-2.572	C.2	1	TRP81	0.000	
10	 CE3	22.790	17.416	-0.694	C.2	1	TRP81	0.000	
11	 NE1	21.618	20.037	-2.798	N.pl3	1	TRP81	0.000	
12	 CZ2	22.876	17.977	-3.466	C.2	1	TRP81	0.000	
13	 CZ3	23.401	16.556	-1.584	C.2	1	TRP81	0.000	
14	 CH2	23.444	16.842	-2.950	C.2	1	TRP81	0.000	
15	   N	24.576	19.758	0.999	N.am	2	PRO82	0.000	
16	  CA	25.757	18.926	1.289	C.3	2	PRO82	0.000	
17	   C	26.496	19.364	2.533	C.2	2	PRO82	0.000	
18	   O	27.256	18.573	3.105	O.2	2	PRO82	0.000	
19	  CB	26.633	19.103	0.047	C.3	2	PRO82	0.000	
20	  CG	25.713	19.621	-1.016	C.3	2	PRO82	0.000	
21	  CD	24.729	20.477	-0.281	C.3	2	PRO82	0.000	
22	   N	26.293	20.607	2.957	N.am	3	PHE83	0.000	
23	  CA	27.028	21.226	4.046	C.3	3	PHE83	0.000	
24	   C	26.238	21.267	5.343	C.2	3	PHE83	0.000	
25	   O	26.733	21.802	6.340	O.2	3	PHE83	0.000	
26	  CB	27.455	22.638	3.626	C.3	3	PHE83	0.000	
27	  CG	28.257	22.656	2.355	C.2	3	PHE83	0.000	
28	 CD1	29.617	22.365	2.370	C.2	3	PHE83	0.000	
29	 CD2	27.651	22.922	1.136	C.2	3	PHE83	0.000	
30	 CE1	30.360	22.349	1.198	C.2	3	PHE83	0.000	
31	 CE2	28.389	22.918	-0.037	C.2	3	PHE83	0.000	
32	  CZ	29.743	22.629	-0.004	C.2	3	PHE83	0.000	
33	   N	25.428	18.871	7.383	N.am	4	GLN85	0.000	
34	  CA	25.785	17.838	8.343	C.3	4	GLN85	0.000	
35	   C	27.184	17.359	8.000	C.2	4	GLN85	0.000	
36	   O	27.662	17.598	6.884	O.2	4	GLN85	0.000	
37	  CB	24.790	16.663	8.296	C.3	4	GLN85	0.000	
38	  CG	24.706	15.976	6.945	C.3	4	GLN85	0.000	
39	  CD	23.944	16.798	5.920	C.2	4	GLN85	0.000	
40	 NE2	24.552	17.008	4.754	N.pl3	4	GLN85	0.000	
41	 OE1	22.826	17.253	6.178	O.2	4	GLN85	0.000	
42	   N	30.296	15.228	6.679	N.am	5	VAL87	0.000	
43	  CA	30.443	14.320	5.544	C.3	5	VAL87	0.000	
44	   C	30.349	12.883	6.040	C.2	5	VAL87	0.000	
45	   O	31.111	12.460	6.917	O.2	5	VAL87	0.000	
46	  CB	31.762	14.581	4.807	C.3	5	VAL87	0.000	
47	 CG1	32.040	13.477	3.781	C.3	5	VAL87	0.000	
48	 CG2	31.716	15.941	4.127	C.3	5	VAL87	0.000	
49	   N	28.749	7.954	1.278	N.am	6	LEU92	0.000	
50	  CA	29.209	8.564	0.039	C.3	6	LEU92	0.000	
51	   C	30.338	7.789	-0.626	C.2	6	LEU92	0.000	
52	   O	30.770	8.165	-1.720	O.2	6	LEU92	0.000	
53	  CB	29.654	10.004	0.304	C.3	6	LEU92	0.000	
54	  CG	28.548	10.942	0.809	C.3	6	LEU92	0.000	
55	 CD1	29.108	12.303	1.188	C.3	6	LEU92	0.000	
56	 CD2	27.423	11.084	-0.209	C.3	6	LEU92	0.000	
57	   N	33.574	7.504	0.186	N.am	7	LEU94	0.000	
58	  CA	34.769	8.341	0.130	C.3	7	LEU94	0.000	
59	   C	35.717	7.887	1.236	C.2	7	LEU94	0.000	
60	   O	35.944	8.615	2.211	O.2	7	LEU94	0.000	
61	  CB	34.407	9.812	0.325	C.3	7	LEU94	0.000	
62	  CG	33.330	10.384	-0.592	C.3	7	LEU94	0.000	
63	 CD1	32.986	11.811	-0.186	C.3	7	LEU94	0.000	
64	 CD2	33.798	10.335	-2.039	C.3	7	LEU94	0.000	
65	   N	38.324	10.339	2.595	N.am	8	TYR97	0.000	
66	  CA	37.950	11.703	2.966	C.3	8	TYR97	0.000	
67	   C	38.617	12.131	4.266	C.2	8	TYR97	0.000	
68	   O	39.239	13.200	4.336	O.2	8	TYR97	0.000	
69	  CB	36.430	11.858	3.073	C.3	8	TYR97	0.000	
70	  CG	36.049	13.303	3.336	C.2	8	TYR97	0.000	
71	 CD1	35.925	14.213	2.286	C.2	8	TYR97	0.000	
72	 CD2	35.871	13.776	4.632	C.2	8	TYR97	0.000	
73	 CE1	35.619	15.547	2.516	C.2	8	TYR97	0.000	
74	 CE2	35.567	15.109	4.872	C.2	8	TYR97	0.000	
75	  CZ	35.442	15.990	3.815	C.2	8	TYR97	0.000	
76	  OH	35.143	17.309	4.082	O.3	8	TYR97	0.000	
77	   N	36.429	21.656	1.474	N.am	9	CYS136	0.000	
78	  CA	35.780	21.289	0.225	C.3	9	CYS136	0.000	
79	   C	36.718	21.500	-0.958	C.2	9	CYS136	0.000	
80	   O	36.811	20.646	-1.850	O.2	9	CYS136	0.000	
81	  CB	34.500	22.107	0.075	C.3	9	CYS136	0.000	
82	  SG	33.494	21.664	-1.348	S.3	9	CYS136	0.000	
83	   N	39.614	18.760	-0.852	N.am	10	TYR139	0.000	
84	  CA	39.265	17.393	-1.208	C.3	10	TYR139	0.000	
85	   C	38.878	17.269	-2.678	C.2	10	TYR139	0.000	
86	   O	39.206	16.268	-3.326	O.2	10	TYR139	0.000	
87	  CB	38.140	16.882	-0.307	C.3	10	TYR139	0.000	
88	  CG	37.854	15.431	-0.592	C.2	10	TYR139	0.000	
89	 CD1	38.707	14.439	-0.133	C.2	10	TYR139	0.000	
90	 CD2	36.756	15.052	-1.351	C.2	10	TYR139	0.000	
91	 CE1	38.468	13.108	-0.417	C.2	10	TYR139	0.000	
92	 CE2	36.509	13.724	-1.649	C.2	10	TYR139	0.000	
93	  CZ	37.367	12.754	-1.180	C.2	10	TYR139	0.000	
94	  OH	37.110	11.433	-1.489	O.3	10	TYR139	0.000	
95	   N	38.171	18.260	-3.212	N.am	11	ASN140	0.000	
96	  CA	37.591	18.201	-4.545	C.3	11	ASN140	0.000	
97	   C	38.469	18.961	-5.541	C.2	11	ASN140	0.000	
98	   O	39.592	19.355	-5.229	O.2	11	ASN140	0.000	
99	  CB	36.145	18.688	-4.468	C.3	11	ASN140	0.000	
100	  CG	35.317	17.838	-3.540	C.2	11	ASN140	0.000	
101	 ND2	35.031	18.355	-2.345	N.pl3	11	ASN140	0.000	
102	 OD1	34.956	16.714	-3.884	O.2	11	ASN140	0.000	
103	   N	34.105	20.892	-10.036	N.am	12	ASP144	0.000	
104	  CA	33.196	19.893	-9.489	C.3	12	ASP144	0.000	
105	   C	31.934	20.586	-8.990	C.2	12	ASP144	0.000	
106	   O	31.983	21.711	-8.486	O.2	12	ASP144	0.000	
107	  CB	33.832	19.167	-8.299	C.3	12	ASP144	0.000	
108	  CG	34.917	18.183	-8.694	C.2	12	ASP144	0.000	
109	 OD1	35.034	17.828	-9.893	O.co2	12	ASP144	0.000	
110	 OD2	35.640	17.745	-7.765	O.co2	12	ASP144	0.000	
111	   N	30.796	19.900	-9.114	N.am	13	ASP145	0.000	
112	  CA	29.541	20.461	-8.612	C.3	13	ASP145	0.000	
113	   C	29.671	20.940	-7.169	C.2	13	ASP145	0.000	
114	   O	29.213	22.035	-6.824	O.2	13	ASP145	0.000	
115	  CB	28.420	19.430	-8.701	C.3	13	ASP145	0.000	
116	  CG	27.781	19.376	-10.068	C.2	13	ASP145	0.000	
117	 OD1	27.873	20.362	-10.827	O.co2	13	ASP145	0.000	
118	 OD2	27.175	18.333	-10.378	O.co2	13	ASP145	0.000	
119	   N	30.279	20.125	-6.304	N.am	14	ILE146	0.000	
120	  CA	30.341	20.496	-4.892	C.3	14	ILE146	0.000	
121	   C	31.162	21.765	-4.697	C.2	14	ILE146	0.000	
122	   O	30.871	22.573	-3.807	O.2	14	ILE146	0.000	
123	  CB	30.830	19.317	-4.022	C.3	14	ILE146	0.000	
124	 CG1	30.707	19.644	-2.538	C.3	14	ILE146	0.000	
125	 CG2	32.271	18.948	-4.336	C.3	14	ILE146	0.000	
126	 CD1	29.298	19.791	-2.077	C.3	14	ILE146	0.000	
127	   N	29.055	24.701	-5.639	N.am	15	MET149	0.000	
128	  CA	28.120	24.949	-4.548	C.3	15	MET149	0.000	
129	   C	28.800	25.698	-3.406	C.2	15	MET149	0.000	
130	   O	28.273	26.699	-2.902	O.2	15	MET149	0.000	
131	  CB	27.550	23.615	-4.077	C.3	15	MET149	0.000	
132	  CG	26.712	22.952	-5.135	C.3	15	MET149	0.000	
133	  SD	26.293	21.241	-4.804	S.3	15	MET149	0.000	
134	  CE	24.757	21.479	-3.913	C.3	15	MET149	0.000	
@<TRIPOS>BOND
1 1 2 1
2 2 3 1
3 2 5 1
4 3 4 2
5 3 15 1
6 5 6 1
7 6 7 2
8 6 8 1
9 7 11 1
10 8 9 2
11 8 10 1
12 9 12 1
13 10 13 2
14 9 11 1
15 12 14 2
16 13 14 1
17 15 16 1
18 15 21 1
19 16 17 1
20 16 19 1
21 17 18 2
22 17 22 1
23 19 20 1
24 20 21 1
25 22 23 1
26 23 24 1
27 23 26 1
28 24 25 2
29 26 27 1
30 27 28 2
31 27 29 1
32 28 30 1
33 29 31 2
34 30 32 2
35 31 32 1
36 33 34 1
37 34 35 1
38 34 37 1
39 35 36 2
40 37 38 1
41 38 39 1
42 39 40 1
43 39 41 2
44 42 43 1
45 43 44 1
46 43 46 1
47 44 45 2
48 46 47 1
49 46 48 1
50 49 50 1
51 50 51 1
52 50 53 1
53 51 52 2
54 53 54 1
55 54 55 1
56 54 56 1
57 57 58 1
58 58 59 1
59 58 61 1
60 59 60 2
61 61 62 1
62 62 63 1
63 62 64 1
64 65 66 1
65 66 67 1
66 66 69 1
67 67 68 2
68 69 70 1
69 70 71 2
70 70 72 1
71 71 73 1
72 72 74 2
73 73 75 2
74 74 75 1
75 75 76 1
76 77 78 1
77 78 79 1
78 78 81 1
79 79 80 2
80 81 82 1
81 83 84 1
82 84 85 1
83 84 87 1
84 85 86 2
85 85 95 1
86 87 88 1
87 88 89 2
88 88 90 1
89 89 91 1
90 90 92 2
91 91 93 2
92 92 93 1
93 93 94 1
94 95 96 1
95 96 97 1
96 96 99 1
97 97 98 2
98 99 100 1
99 100 101 1
100 100 102 2
101 103 104 1
102 104 105 1
103 104 107 1
104 105 106 2
105 105 111 1
106 107 108 1
107 108 109 2
108 108 110 1
109 111 112 1
110 112 113 1
111 112 115 1
112 113 114 2
113 113 119 1
114 115 116 1
115 116 117 2
116 116 118 1
117 119 120 1
118 120 121 1
119 120 123 1
120 121 122 2
121 123 124 1
122 123 125 1
123 124 126 1
124 127 128 1
125 128 129 1
126 128 131 1
127 129 130 2
128 131 132 1
129 132 133 1
130 133 134 1
@<TRIPOS>SUBSTRUCTURE
1	TRP81	1	RESIDUE	1 B	TRP
2	PRO82	15	RESIDUE	1 B	PRO
3	PHE83	22	RESIDUE	1 B	PHE
4	GLN85	33	RESIDUE	1 B	GLN
5	VAL87	42	RESIDUE	1 B	VAL
6	LEU92	49	RESIDUE	1 B	LEU
7	LEU94	57	RESIDUE	1 B	LEU
8	TYR97	65	RESIDUE	1 B	TYR
9	CYS136	77	RESIDUE	1 B	CYS
10	TYR139	83	RESIDUE	1 B	TYR
11	ASN140	95	RESIDUE	1 B	ASN
12	ASP144	103	RESIDUE	1 B	ASP
13	ASP145	111	RESIDUE	1 B	ASP
14	ILE146	119	RESIDUE	1 B	ILE
15	MET149	127	RESIDUE	1 B	MET
