# created with PyMOL 2.5.2
@<TRIPOS>MOLECULE
BRD4_6C7R_TargetProtein
135 131 15              
SMALL
USER_CHARGES
@<TRIPOS>ATOM
1	   N	6.313	8.825	17.000	N.am	1	TRP81	0.000	
2	  CA	6.717	8.192	18.242	C.3	1	TRP81	0.000	
3	   C	5.742	7.117	18.785	C.2	1	TRP81	0.000	
4	   O	6.262	6.088	19.195	O.2	1	TRP81	0.000	
5	  CB	7.119	9.190	19.347	C.3	1	TRP81	0.000	
6	  CG	5.984	9.985	19.896	C.2	1	TRP81	0.000	
7	 CD1	5.523	11.178	19.435	C.2	1	TRP81	0.000	
8	 CD2	5.135	9.618	20.996	C.2	1	TRP81	0.000	
9	 CE2	4.154	10.630	21.121	C.2	1	TRP81	0.000	
10	 CE3	5.062	8.497	21.840	C.2	1	TRP81	0.000	
11	 NE1	4.429	11.584	20.175	N.pl3	1	TRP81	0.000	
12	 CZ2	3.114	10.553	22.060	C.2	1	TRP81	0.000	
13	 CZ3	4.064	8.446	22.799	C.2	1	TRP81	0.000	
14	 CH2	3.112	9.468	22.909	C.2	1	TRP81	0.000	
15	   N	4.389	7.213	18.725	N.am	2	PRO82	0.000	
16	  CA	3.567	6.111	19.277	C.3	2	PRO82	0.000	
17	   C	3.677	4.806	18.499	C.2	2	PRO82	0.000	
18	   O	3.233	3.751	18.977	O.2	2	PRO82	0.000	
19	  CB	2.127	6.636	19.161	C.3	2	PRO82	0.000	
20	  CG	2.273	8.143	19.159	C.3	2	PRO82	0.000	
21	  CD	3.523	8.348	18.314	C.3	2	PRO82	0.000	
22	   N	4.230	4.916	17.270	N.am	3	PHE83	0.000	
23	  CA	4.348	3.819	16.311	C.3	3	PHE83	0.000	
24	   C	5.758	3.264	16.230	C.2	3	PHE83	0.000	
25	   O	5.979	2.347	15.451	O.2	3	PHE83	0.000	
26	  CB	3.946	4.288	14.894	C.3	3	PHE83	0.000	
27	  CG	2.538	4.854	14.824	C.2	3	PHE83	0.000	
28	 CD1	2.297	6.189	15.110	C.2	3	PHE83	0.000	
29	 CD2	1.461	4.052	14.448	C.2	3	PHE83	0.000	
30	 CE1	0.993	6.716	15.069	C.2	3	PHE83	0.000	
31	 CE2	0.170	4.589	14.357	C.2	3	PHE83	0.000	
32	  CZ	-0.054	5.909	14.705	C.2	3	PHE83	0.000	
33	   N	7.428	1.542	18.455	N.am	4	GLN85	0.000	
34	  CA	7.560	0.367	19.289	C.3	4	GLN85	0.000	
35	   C	6.202	-0.251	19.452	C.2	4	GLN85	0.000	
36	   O	5.176	0.420	19.209	O.2	4	GLN85	0.000	
37	  CB	8.182	0.720	20.668	C.3	4	GLN85	0.000	
38	  CG	7.405	1.740	21.532	C.3	4	GLN85	0.000	
39	  CD	7.517	3.148	21.052	C.2	4	GLN85	0.000	
40	 NE2	6.358	3.778	20.854	N.pl3	4	GLN85	0.000	
41	 OE1	8.593	3.655	20.755	O.2	4	GLN85	0.000	
42	   N	2.601	-1.389	20.766	N.am	5	VAL87	0.000	
43	  CA	1.590	-0.810	21.656	C.3	5	VAL87	0.000	
44	   C	1.742	-1.580	22.993	C.2	5	VAL87	0.000	
45	   O	1.587	-2.799	23.009	O.2	5	VAL87	0.000	
46	  CB	0.170	-1.033	21.074	C.3	5	VAL87	0.000	
47	 CG1	-0.904	-0.620	22.085	C.3	5	VAL87	0.000	
48	 CG2	-0.009	-0.292	19.751	C.3	5	VAL87	0.000	
49	   N	0.592	-1.331	30.094	N.am	6	LYS91	0.000	
50	  CA	1.050	-0.020	30.577	C.3	6	LYS91	0.000	
51	   C	0.082	1.127	30.167	C.2	6	LYS91	0.000	
52	   O	-0.078	2.096	30.912	O.2	6	LYS91	0.000	
53	  CB	2.492	0.264	30.109	C.3	6	LYS91	0.000	
54	  CG	3.196	1.373	30.889	C.3	6	LYS91	0.000	
55	  CD	4.492	1.804	30.219	C.3	6	LYS91	0.000	
56	  CE	5.028	3.087	30.807	C.3	6	LYS91	0.000	
57	  NZ	6.053	3.710	29.929	N.4	6	LYS91	0.000	
58	   N	-0.574	1.006	29.009	N.am	7	LEU92	0.000	
59	  CA	-1.543	1.987	28.518	C.3	7	LEU92	0.000	
60	   C	-2.970	1.720	28.995	C.2	7	LEU92	0.000	
61	   O	-3.913	2.394	28.547	O.2	7	LEU92	0.000	
62	  CB	-1.532	2.055	26.986	C.3	7	LEU92	0.000	
63	  CG	-0.361	2.773	26.328	C.3	7	LEU92	0.000	
64	 CD1	-0.337	2.451	24.841	C.3	7	LEU92	0.000	
65	 CD2	-0.455	4.287	26.547	C.3	7	LEU92	0.000	
66	   N	-5.085	-0.784	28.349	N.am	8	LEU94	0.000	
67	  CA	-5.916	-1.199	27.221	C.3	8	LEU94	0.000	
68	   C	-5.986	-2.726	27.309	C.2	8	LEU94	0.000	
69	   O	-5.365	-3.414	26.501	O.2	8	LEU94	0.000	
70	  CB	-5.323	-0.748	25.866	C.3	8	LEU94	0.000	
71	  CG	-4.975	0.739	25.738	C.3	8	LEU94	0.000	
72	 CD1	-4.207	0.980	24.485	C.3	8	LEU94	0.000	
73	 CD2	-6.225	1.646	25.848	C.3	8	LEU94	0.000	
74	   N	-6.867	-4.860	24.100	N.am	9	TYR97	0.000	
75	  CA	-6.096	-4.652	22.877	C.3	9	TYR97	0.000	
76	   C	-5.766	-5.933	22.131	C.2	9	TYR97	0.000	
77	   O	-6.012	-6.013	20.942	O.2	9	TYR97	0.000	
78	  CB	-4.822	-3.833	23.144	C.3	9	TYR97	0.000	
79	  CG	-4.099	-3.456	21.862	C.2	9	TYR97	0.000	
80	 CD1	-4.518	-2.370	21.092	C.2	9	TYR97	0.000	
81	 CD2	-3.042	-4.230	21.379	C.2	9	TYR97	0.000	
82	 CE1	-3.910	-2.066	19.883	C.2	9	TYR97	0.000	
83	 CE2	-2.427	-3.933	20.166	C.2	9	TYR97	0.000	
84	  CZ	-2.834	-2.822	19.447	C.2	9	TYR97	0.000	
85	  OH	-2.274	-2.563	18.237	O.3	9	TYR97	0.000	
86	   N	-4.439	0.175	13.831	N.am	10	CYS136	0.000	
87	  CA	-4.802	1.412	14.482	C.3	10	CYS136	0.000	
88	   C	-6.262	1.778	14.198	C.2	10	CYS136	0.000	
89	   O	-6.994	2.101	15.126	O.2	10	CYS136	0.000	
90	  CB	-3.847	2.514	14.038	C.3	10	CYS136	0.000	
91	  SG	-4.047	4.048	14.950	S.3	10	CYS136	0.000	
92	   N	-8.723	-0.859	16.143	N.am	11	TYR139	0.000	
93	  CA	-8.840	-0.742	17.576	C.3	11	TYR139	0.000	
94	   C	-9.496	0.511	18.024	C.2	11	TYR139	0.000	
95	   O	-10.312	0.498	18.955	O.2	11	TYR139	0.000	
96	  CB	-7.480	-0.929	18.294	C.3	11	TYR139	0.000	
97	  CG	-7.666	-0.899	19.791	C.2	11	TYR139	0.000	
98	 CD1	-8.141	-2.016	20.479	C.2	11	TYR139	0.000	
99	 CD2	-7.442	0.267	20.519	C.2	11	TYR139	0.000	
100	 CE1	-8.367	-1.978	21.852	C.2	11	TYR139	0.000	
101	 CE2	-7.644	0.312	21.898	C.2	11	TYR139	0.000	
102	  CZ	-8.153	-0.800	22.555	C.2	11	TYR139	0.000	
103	  OH	-8.361	-0.756	23.912	O.3	11	TYR139	0.000	
104	   N	-9.114	1.596	17.370	N.am	12	ASN140	0.000	
105	  CA	-9.598	2.929	17.682	C.3	12	ASN140	0.000	
106	   C	-10.836	3.261	16.805	C.2	12	ASN140	0.000	
107	   O	-11.358	2.380	16.116	O.2	12	ASN140	0.000	
108	  CB	-8.443	3.918	17.544	C.3	12	ASN140	0.000	
109	  CG	-7.230	3.500	18.357	C.2	12	ASN140	0.000	
110	 ND2	-6.236	2.890	17.710	N.pl3	12	ASN140	0.000	
111	 OD1	-7.158	3.714	19.566	O.2	12	ASN140	0.000	
112	   N	-7.548	10.889	17.852	N.am	13	ASP145	0.000	
113	  CA	-6.222	11.480	17.629	C.3	13	ASP145	0.000	
114	   C	-5.224	10.497	17.038	C.2	13	ASP145	0.000	
115	   O	-4.566	10.814	16.047	O.2	13	ASP145	0.000	
116	  CB	-5.646	12.072	18.917	C.3	13	ASP145	0.000	
117	  CG	-6.315	13.339	19.400	C.2	13	ASP145	0.000	
118	 OD1	-7.071	13.939	18.622	O.co2	13	ASP145	0.000	
119	 OD2	-6.067	13.729	20.547	O.co2	13	ASP145	0.000	
120	   N	-5.143	9.286	17.612	N.am	14	ILE146	0.000	
121	  CA	-4.178	8.312	17.090	C.3	14	ILE146	0.000	
122	   C	-4.515	7.917	15.675	C.2	14	ILE146	0.000	
123	   O	-3.608	7.685	14.896	O.2	14	ILE146	0.000	
124	  CB	-3.984	7.111	18.053	C.3	14	ILE146	0.000	
125	 CG1	-2.711	6.312	17.736	C.3	14	ILE146	0.000	
126	 CG2	-5.186	6.206	18.133	C.3	14	ILE146	0.000	
127	 CD1	-1.478	6.995	18.124	C.3	14	ILE146	0.000	
128	   N	-3.286	10.665	13.466	N.am	15	MET149	0.000	
129	  CA	-1.824	10.510	13.373	C.3	15	MET149	0.000	
130	   C	-1.431	9.398	12.399	C.2	15	MET149	0.000	
131	   O	-0.616	9.616	11.488	O.2	15	MET149	0.000	
132	  CB	-1.209	10.339	14.750	C.3	15	MET149	0.000	
133	  CG	-1.214	11.613	15.529	C.3	15	MET149	0.000	
134	  SD	-1.007	11.332	17.267	S.3	15	MET149	0.000	
135	  CE	0.720	11.177	17.395	C.3	15	MET149	0.000	
@<TRIPOS>BOND
1 1 2 1
2 2 3 1
3 2 5 1
4 3 4 2
5 3 15 1
6 5 6 1
7 6 7 2
8 6 8 1
9 7 11 1
10 8 9 2
11 8 10 1
12 9 12 1
13 10 13 2
14 9 11 1
15 12 14 2
16 13 14 1
17 15 16 1
18 15 21 1
19 16 17 1
20 16 19 1
21 17 18 2
22 17 22 1
23 19 20 1
24 20 21 1
25 22 23 1
26 23 24 1
27 23 26 1
28 24 25 2
29 26 27 1
30 27 28 2
31 27 29 1
32 28 30 1
33 29 31 2
34 30 32 2
35 31 32 1
36 33 34 1
37 34 35 1
38 34 37 1
39 35 36 2
40 37 38 1
41 38 39 1
42 39 40 1
43 39 41 2
44 42 43 1
45 43 44 1
46 43 46 1
47 44 45 2
48 46 47 1
49 46 48 1
50 49 50 1
51 50 51 1
52 50 53 1
53 51 52 2
54 51 58 1
55 53 54 1
56 54 55 1
57 55 56 1
58 56 57 1
59 58 59 1
60 59 60 1
61 59 62 1
62 60 61 2
63 62 63 1
64 63 64 1
65 63 65 1
66 66 67 1
67 67 68 1
68 67 70 1
69 68 69 2
70 70 71 1
71 71 72 1
72 71 73 1
73 74 75 1
74 75 76 1
75 75 78 1
76 76 77 2
77 78 79 1
78 79 80 2
79 79 81 1
80 80 82 1
81 81 83 2
82 82 84 2
83 83 84 1
84 84 85 1
85 86 87 1
86 87 88 1
87 87 90 1
88 88 89 2
89 90 91 1
90 92 93 1
91 93 94 1
92 93 96 1
93 94 95 2
94 94 104 1
95 96 97 1
96 97 98 2
97 97 99 1
98 98 100 1
99 99 101 2
100 100 102 2
101 101 102 1
102 102 103 1
103 104 105 1
104 105 106 1
105 105 108 1
106 106 107 2
107 108 109 1
108 109 110 1
109 109 111 2
110 112 113 1
111 113 114 1
112 113 116 1
113 114 115 2
114 114 120 1
115 116 117 1
116 117 118 2
117 117 119 1
118 120 121 1
119 121 122 1
120 121 124 1
121 122 123 2
122 124 125 1
123 124 126 1
124 125 127 1
125 128 129 1
126 129 130 1
127 129 132 1
128 130 131 2
129 132 133 1
130 133 134 1
131 134 135 1
@<TRIPOS>SUBSTRUCTURE
1	TRP81	1	RESIDUE	1 B	TRP
2	PRO82	15	RESIDUE	1 B	PRO
3	PHE83	22	RESIDUE	1 B	PHE
4	GLN85	33	RESIDUE	1 B	GLN
5	VAL87	42	RESIDUE	1 B	VAL
6	LYS91	49	RESIDUE	1 B	LYS
7	LEU92	58	RESIDUE	1 B	LEU
8	LEU94	66	RESIDUE	1 B	LEU
9	TYR97	74	RESIDUE	1 B	TYR
10	CYS136	86	RESIDUE	1 B	CYS
11	TYR139	92	RESIDUE	1 B	TYR
12	ASN140	104	RESIDUE	1 B	ASN
13	ASP145	112	RESIDUE	1 B	ASP
14	ILE146	120	RESIDUE	1 B	ILE
15	MET149	128	RESIDUE	1 B	MET
