# created with PyMOL 2.5.2
@<TRIPOS>MOLECULE
BRD4_6YQN_TargetProtein
125 122 14              
SMALL
USER_CHARGES
@<TRIPOS>ATOM
1	   N	22.583	21.831	1.031	N.am	1	TRP81	0.000	
2	  CA	22.393	20.463	1.517	C.3	1	TRP81	0.000	
3	   C	23.669	19.653	1.740	C.2	1	TRP81	0.000	
4	   O	23.733	18.934	2.753	O.2	1	TRP81	0.000	
5	  CB	21.336	19.716	0.686	C.3	1	TRP81	0.000	
6	  CG	21.659	19.579	-0.764	C.2	1	TRP81	0.000	
7	 CD1	21.336	20.458	-1.758	C.2	1	TRP81	0.000	
8	 CD2	22.349	18.490	-1.397	C.2	1	TRP81	0.000	
9	 CE2	22.421	18.791	-2.773	C.2	1	TRP81	0.000	
10	 CE3	22.930	17.304	-0.932	C.2	1	TRP81	0.000	
11	 NE1	21.792	19.993	-2.968	N.pl3	1	TRP81	0.000	
12	 CZ2	23.039	17.943	-3.690	C.2	1	TRP81	0.000	
13	 CZ3	23.545	16.469	-1.843	C.2	1	TRP81	0.000	
14	 CH2	23.599	16.791	-3.202	C.2	1	TRP81	0.000	
15	   N	24.706	19.715	0.895	N.am	2	PRO82	0.000	
16	  CA	25.902	18.906	1.184	C.3	2	PRO82	0.000	
17	   C	26.632	19.348	2.426	C.2	2	PRO82	0.000	
18	   O	27.440	18.578	2.960	O.2	2	PRO82	0.000	
19	  CB	26.771	19.097	-0.062	C.3	2	PRO82	0.000	
20	  CG	25.830	19.604	-1.120	C.3	2	PRO82	0.000	
21	  CD	24.852	20.442	-0.379	C.3	2	PRO82	0.000	
22	   N	26.367	20.564	2.888	N.am	3	PHE83	0.000	
23	  CA	27.086	21.201	3.977	C.3	3	PHE83	0.000	
24	   C	26.290	21.252	5.270	C.2	3	PHE83	0.000	
25	   O	26.776	21.817	6.255	O.2	3	PHE83	0.000	
26	  CB	27.513	22.617	3.559	C.3	3	PHE83	0.000	
27	  CG	28.305	22.640	2.278	C.2	3	PHE83	0.000	
28	 CD1	29.657	22.340	2.284	C.2	3	PHE83	0.000	
29	 CD2	27.691	22.902	1.058	C.2	3	PHE83	0.000	
30	 CE1	30.387	22.324	1.113	C.2	3	PHE83	0.000	
31	 CE2	28.421	22.893	-0.115	C.2	3	PHE83	0.000	
32	  CZ	29.760	22.598	-0.087	C.2	3	PHE83	0.000	
33	   N	25.540	18.885	7.365	N.am	4	GLN85	0.000	
34	  CA	25.892	17.848	8.325	C.3	4	GLN85	0.000	
35	   C	27.306	17.397	8.017	C.2	4	GLN85	0.000	
36	   O	27.802	17.639	6.915	O.2	4	GLN85	0.000	
37	  CB	24.920	16.656	8.234	C.3	4	GLN85	0.000	
38	  CG	24.893	15.984	6.860	C.3	4	GLN85	0.000	
39	  CD	24.168	16.805	5.801	C.2	4	GLN85	0.000	
40	 NE2	24.831	17.036	4.669	N.pl3	4	GLN85	0.000	
41	 OE1	23.033	17.233	6.004	O.2	4	GLN85	0.000	
42	   N	30.458	15.353	6.732	N.am	5	VAL87	0.000	
43	  CA	30.629	14.458	5.592	C.3	5	VAL87	0.000	
44	   C	30.552	13.016	6.074	C.2	5	VAL87	0.000	
45	   O	31.327	12.592	6.938	O.2	5	VAL87	0.000	
46	  CB	31.954	14.746	4.878	C.3	5	VAL87	0.000	
47	 CG1	32.253	13.666	3.831	C.3	5	VAL87	0.000	
48	 CG2	31.916	16.129	4.236	C.3	5	VAL87	0.000	
49	   N	28.872	8.158	1.322	N.am	6	LEU92	0.000	
50	  CA	29.322	8.780	0.083	C.3	6	LEU92	0.000	
51	   C	30.472	8.032	-0.582	C.2	6	LEU92	0.000	
52	   O	30.922	8.439	-1.657	O.2	6	LEU92	0.000	
53	  CB	29.716	10.236	0.340	C.3	6	LEU92	0.000	
54	  CG	28.567	11.131	0.820	C.3	6	LEU92	0.000	
55	 CD1	29.081	12.489	1.257	C.3	6	LEU92	0.000	
56	 CD2	27.488	11.283	-0.249	C.3	6	LEU92	0.000	
57	   N	33.743	7.751	0.201	N.am	7	LEU94	0.000	
58	  CA	34.928	8.601	0.131	C.3	7	LEU94	0.000	
59	   C	35.909	8.104	1.188	C.2	7	LEU94	0.000	
60	   O	36.153	8.783	2.193	O.2	7	LEU94	0.000	
61	  CB	34.553	10.057	0.394	C.3	7	LEU94	0.000	
62	  CG	33.417	10.663	-0.428	C.3	7	LEU94	0.000	
63	 CD1	33.087	12.058	0.095	C.3	7	LEU94	0.000	
64	 CD2	33.777	10.698	-1.907	C.3	7	LEU94	0.000	
65	   N	38.525	10.532	2.536	N.am	8	TYR97	0.000	
66	  CA	38.154	11.898	2.909	C.3	8	TYR97	0.000	
67	   C	38.841	12.330	4.199	C.2	8	TYR97	0.000	
68	   O	39.475	13.392	4.254	O.2	8	TYR97	0.000	
69	  CB	36.633	12.052	3.022	C.3	8	TYR97	0.000	
70	  CG	36.245	13.488	3.298	C.2	8	TYR97	0.000	
71	 CD1	36.097	14.394	2.258	C.2	8	TYR97	0.000	
72	 CD2	36.073	13.949	4.597	C.2	8	TYR97	0.000	
73	 CE1	35.782	15.720	2.498	C.2	8	TYR97	0.000	
74	 CE2	35.753	15.273	4.849	C.2	8	TYR97	0.000	
75	  CZ	35.612	16.157	3.797	C.2	8	TYR97	0.000	
76	  OH	35.301	17.473	4.058	O.3	8	TYR97	0.000	
77	   N	36.434	21.772	1.428	N.am	9	CYS136	0.000	
78	  CA	35.811	21.405	0.166	C.3	9	CYS136	0.000	
79	   C	36.762	21.633	-1.002	C.2	9	CYS136	0.000	
80	   O	36.880	20.786	-1.895	O.2	9	CYS136	0.000	
81	  CB	34.526	22.209	0.001	C.3	9	CYS136	0.000	
82	  SG	33.555	21.756	-1.430	S.3	9	CYS136	0.000	
83	   N	39.694	18.965	-0.864	N.am	10	TYR139	0.000	
84	  CA	39.381	17.583	-1.211	C.3	10	TYR139	0.000	
85	   C	39.001	17.429	-2.680	C.2	10	TYR139	0.000	
86	   O	39.364	16.435	-3.319	O.2	10	TYR139	0.000	
87	  CB	38.276	17.045	-0.302	C.3	10	TYR139	0.000	
88	  CG	38.007	15.594	-0.589	C.2	10	TYR139	0.000	
89	 CD1	38.895	14.611	-0.170	C.2	10	TYR139	0.000	
90	 CD2	36.893	15.206	-1.319	C.2	10	TYR139	0.000	
91	 CE1	38.672	13.279	-0.466	C.2	10	TYR139	0.000	
92	 CE2	36.665	13.869	-1.627	C.2	10	TYR139	0.000	
93	  CZ	37.550	12.910	-1.190	C.2	10	TYR139	0.000	
94	  OH	37.313	11.588	-1.514	O.3	10	TYR139	0.000	
95	   N	38.262	18.385	-3.227	N.am	11	ASN140	0.000	
96	  CA	37.660	18.255	-4.543	C.3	11	ASN140	0.000	
97	   C	38.506	18.959	-5.608	C.2	11	ASN140	0.000	
98	   O	39.599	19.454	-5.342	O.2	11	ASN140	0.000	
99	  CB	36.224	18.767	-4.490	C.3	11	ASN140	0.000	
100	  CG	35.370	17.953	-3.552	C.2	11	ASN140	0.000	
101	 ND2	35.087	18.491	-2.368	N.pl3	11	ASN140	0.000	
102	 OD1	34.985	16.838	-3.883	O.2	11	ASN140	0.000	
103	   N	30.926	20.065	-9.170	N.am	12	ASP145	0.000	
104	  CA	29.656	20.593	-8.678	C.3	12	ASP145	0.000	
105	   C	29.767	21.061	-7.234	C.2	12	ASP145	0.000	
106	   O	29.317	22.159	-6.890	O.2	12	ASP145	0.000	
107	  CB	28.560	19.537	-8.783	C.3	12	ASP145	0.000	
108	  CG	28.003	19.411	-10.177	C.2	12	ASP145	0.000	
109	 OD1	28.148	20.366	-10.975	O.co2	12	ASP145	0.000	
110	 OD2	27.407	18.353	-10.462	O.co2	12	ASP145	0.000	
111	   N	30.373	20.239	-6.374	N.am	13	ILE146	0.000	
112	  CA	30.426	20.579	-4.958	C.3	13	ILE146	0.000	
113	   C	31.231	21.853	-4.736	C.2	13	ILE146	0.000	
114	   O	30.924	22.633	-3.831	O.2	13	ILE146	0.000	
115	  CB	30.945	19.384	-4.128	C.3	13	ILE146	0.000	
116	 CG1	30.800	19.647	-2.632	C.3	13	ILE146	0.000	
117	 CG2	32.389	19.066	-4.460	C.3	13	ILE146	0.000	
118	 CD1	29.391	19.772	-2.188	C.3	13	ILE146	0.000	
119	   N	32.257	22.092	-5.564	N.am	14	VAL147	0.000	
120	  CA	33.072	23.303	-5.452	C.3	14	VAL147	0.000	
121	   C	32.280	24.530	-5.888	C.2	14	VAL147	0.000	
122	   O	32.347	25.584	-5.245	O.2	14	VAL147	0.000	
123	  CB	34.386	23.139	-6.243	C.3	14	VAL147	0.000	
124	 CG1	35.142	24.465	-6.351	C.3	14	VAL147	0.000	
125	 CG2	35.255	22.074	-5.592	C.3	14	VAL147	0.000	
@<TRIPOS>BOND
1 1 2 1
2 2 3 1
3 2 5 1
4 3 4 2
5 3 15 1
6 5 6 1
7 6 7 2
8 6 8 1
9 7 11 1
10 8 9 2
11 8 10 1
12 9 12 1
13 10 13 2
14 9 11 1
15 12 14 2
16 13 14 1
17 15 16 1
18 15 21 1
19 16 17 1
20 16 19 1
21 17 18 2
22 17 22 1
23 19 20 1
24 20 21 1
25 22 23 1
26 23 24 1
27 23 26 1
28 24 25 2
29 26 27 1
30 27 28 2
31 27 29 1
32 28 30 1
33 29 31 2
34 30 32 2
35 31 32 1
36 33 34 1
37 34 35 1
38 34 37 1
39 35 36 2
40 37 38 1
41 38 39 1
42 39 40 1
43 39 41 2
44 42 43 1
45 43 44 1
46 43 46 1
47 44 45 2
48 46 47 1
49 46 48 1
50 49 50 1
51 50 51 1
52 50 53 1
53 51 52 2
54 53 54 1
55 54 55 1
56 54 56 1
57 57 58 1
58 58 59 1
59 58 61 1
60 59 60 2
61 61 62 1
62 62 63 1
63 62 64 1
64 65 66 1
65 66 67 1
66 66 69 1
67 67 68 2
68 69 70 1
69 70 71 2
70 70 72 1
71 71 73 1
72 72 74 2
73 73 75 2
74 74 75 1
75 75 76 1
76 77 78 1
77 78 79 1
78 78 81 1
79 79 80 2
80 81 82 1
81 83 84 1
82 84 85 1
83 84 87 1
84 85 86 2
85 85 95 1
86 87 88 1
87 88 89 2
88 88 90 1
89 89 91 1
90 90 92 2
91 91 93 2
92 92 93 1
93 93 94 1
94 95 96 1
95 96 97 1
96 96 99 1
97 97 98 2
98 99 100 1
99 100 101 1
100 100 102 2
101 103 104 1
102 104 105 1
103 104 107 1
104 105 106 2
105 105 111 1
106 107 108 1
107 108 109 2
108 108 110 1
109 111 112 1
110 112 113 1
111 112 115 1
112 113 114 2
113 113 119 1
114 115 116 1
115 115 117 1
116 116 118 1
117 119 120 1
118 120 121 1
119 120 123 1
120 121 122 2
121 123 124 1
122 123 125 1
@<TRIPOS>SUBSTRUCTURE
1	TRP81	1	RESIDUE	1 B	TRP
2	PRO82	15	RESIDUE	1 B	PRO
3	PHE83	22	RESIDUE	1 B	PHE
4	GLN85	33	RESIDUE	1 B	GLN
5	VAL87	42	RESIDUE	1 B	VAL
6	LEU92	49	RESIDUE	1 B	LEU
7	LEU94	57	RESIDUE	1 B	LEU
8	TYR97	65	RESIDUE	1 B	TYR
9	CYS136	77	RESIDUE	1 B	CYS
10	TYR139	83	RESIDUE	1 B	TYR
11	ASN140	95	RESIDUE	1 B	ASN
12	ASP145	103	RESIDUE	1 B	ASP
13	ILE146	111	RESIDUE	1 B	ILE
14	VAL147	119	RESIDUE	1 B	VAL
