# created with PyMOL 2.5.2
@<TRIPOS>MOLECULE
EGFR_6DUK_TargetProtein
192 179 23              
SMALL
USER_CHARGES
@<TRIPOS>ATOM
1	   N	38.775	99.870	-63.079	N.am	1	PHE723	0.000	
2	  CA	40.189	99.543	-63.163	C.3	1	PHE723	0.000	
3	   C	40.607	98.888	-64.468	C.2	1	PHE723	0.000	
4	   O	41.813	98.747	-64.707	O.2	1	PHE723	0.000	
5	  CB	40.599	98.679	-61.956	C.3	1	PHE723	0.000	
6	  CG	40.547	99.440	-60.663	C.2	1	PHE723	0.000	
7	 CD1	41.344	100.570	-60.482	C.2	1	PHE723	0.000	
8	 CD2	39.648	99.100	-59.672	C.2	1	PHE723	0.000	
9	 CE1	41.282	101.318	-59.310	C.2	1	PHE723	0.000	
10	 CE2	39.575	99.840	-58.495	C.2	1	PHE723	0.000	
11	  CZ	40.389	100.948	-58.311	C.2	1	PHE723	0.000	
12	   N	37.408	95.383	-70.746	N.am	2	VAL726	0.000	
13	  CA	37.189	93.978	-71.071	C.3	2	VAL726	0.000	
14	   C	37.031	93.844	-72.580	C.2	2	VAL726	0.000	
15	   O	36.300	94.621	-73.204	O.2	2	VAL726	0.000	
16	  CB	35.967	93.412	-70.323	C.3	2	VAL726	0.000	
17	 CG1	35.601	91.997	-70.842	C.3	2	VAL726	0.000	
18	 CG2	36.260	93.363	-68.817	C.3	2	VAL726	0.000	
19	   N	37.524	85.900	-72.617	N.am	3	ALA743	0.000	
20	  CA	37.448	87.304	-72.221	C.3	3	ALA743	0.000	
21	   C	38.808	87.754	-71.698	C.2	3	ALA743	0.000	
22	   O	39.461	87.025	-70.942	O.2	3	ALA743	0.000	
23	  CB	36.378	87.540	-71.142	C.3	3	ALA743	0.000	
24	   N	39.226	88.963	-72.080	N.am	4	ILE744	0.000	
25	  CA	40.507	89.513	-71.645	C.3	4	ILE744	0.000	
26	   C	40.263	90.877	-71.015	C.2	4	ILE744	0.000	
27	   O	39.681	91.759	-71.650	O.2	4	ILE744	0.000	
28	  CB	41.519	89.633	-72.802	C.3	4	ILE744	0.000	
29	 CG1	41.757	88.284	-73.473	C.3	4	ILE744	0.000	
30	 CG2	42.854	90.136	-72.287	C.3	4	ILE744	0.000	
31	 CD1	42.289	88.428	-74.887	C.3	4	ILE744	0.000	
32	   N	40.727	91.058	-69.787	N.am	5	LYS745	0.000	
33	  CA	40.710	92.358	-69.133	C.3	5	LYS745	0.000	
34	   C	42.128	92.924	-69.083	C.2	5	LYS745	0.000	
35	   O	43.031	92.298	-68.511	O.2	5	LYS745	0.000	
36	  CB	40.144	92.279	-67.718	C.3	5	LYS745	0.000	
37	  CG	40.231	93.613	-66.962	C.3	5	LYS745	0.000	
38	  CD	39.560	93.509	-65.582	C.3	5	LYS745	0.000	
39	  CE	38.022	93.408	-65.712	C.3	5	LYS745	0.000	
40	  NZ	37.318	93.433	-64.371	N.4	5	LYS745	0.000	
41	   N	44.167	96.085	-67.508	N.am	6	LEU747	0.000	
42	  CA	44.061	97.172	-66.546	C.3	6	LEU747	0.000	
43	   C	44.434	98.503	-67.200	C.2	6	LEU747	0.000	
44	   O	45.160	98.556	-68.187	O.2	6	LEU747	0.000	
45	  CB	44.949	96.911	-65.330	C.3	6	LEU747	0.000	
46	  CG	44.700	95.598	-64.580	C.3	6	LEU747	0.000	
47	 CD1	45.641	95.502	-63.381	C.3	6	LEU747	0.000	
48	 CD2	43.235	95.447	-64.124	C.3	6	LEU747	0.000	
49	   N	46.061	101.086	-65.722	N.am	7	GLU749	0.000	
50	  CA	47.306	101.641	-65.219	C.3	7	GLU749	0.000	
51	   C	48.419	100.621	-65.343	C.2	7	GLU749	0.000	
52	   O	48.229	99.444	-65.010	O.2	7	GLU749	0.000	
53	  CB	47.202	102.041	-63.744	C.3	7	GLU749	0.000	
54	  CG	46.128	103.019	-63.379	C.3	7	GLU749	0.000	
55	  CD	45.981	103.093	-61.871	C.2	7	GLU749	0.000	
56	 OE1	46.698	102.344	-61.172	O.co2	7	GLU749	0.000	
57	 OE2	45.177	103.896	-61.380	O.co2	7	GLU749	0.000	
58	   N	51.910	98.840	-64.204	N.am	8	THR751	0.000	
59	  CA	52.378	98.417	-62.897	C.3	8	THR751	0.000	
60	   C	53.853	98.058	-62.975	C.2	8	THR751	0.000	
61	   O	54.346	97.581	-64.002	O.2	8	THR751	0.000	
62	  CB	51.568	97.217	-62.360	C.3	8	THR751	0.000	
63	 CG2	50.274	97.698	-61.659	C.3	8	THR751	0.000	
64	 OG1	51.216	96.352	-63.447	O.3	8	THR751	0.000	
65	   N	50.126	91.463	-57.319	N.am	9	ILE759	0.000	
66	  CA	48.985	91.094	-58.141	C.3	9	ILE759	0.000	
67	   C	48.975	89.587	-58.380	C.2	9	ILE759	0.000	
68	   O	47.953	88.913	-58.187	O.2	9	ILE759	0.000	
69	  CB	49.014	91.910	-59.449	C.3	9	ILE759	0.000	
70	 CG1	48.720	93.388	-59.118	C.3	9	ILE759	0.000	
71	 CG2	48.058	91.334	-60.495	C.3	9	ILE759	0.000	
72	 CD1	48.941	94.359	-60.269	C.3	9	ILE759	0.000	
73	   N	42.568	84.003	-56.646	N.am	10	MET766	0.000	
74	  CA	41.430	84.207	-57.531	C.3	10	MET766	0.000	
75	   C	41.197	83.033	-58.463	C.2	10	MET766	0.000	
76	   O	40.058	82.816	-58.898	O.2	10	MET766	0.000	
77	  CB	41.647	85.475	-58.352	C.3	10	MET766	0.000	
78	  CG	41.407	86.790	-57.572	C.3	10	MET766	0.000	
79	  SD	42.309	88.107	-58.425	S.3	10	MET766	0.000	
80	  CE	41.937	89.497	-57.338	C.3	10	MET766	0.000	
81	   N	32.992	82.683	-60.603	N.am	11	CYS775	0.000	
82	  CA	33.927	82.552	-61.711	C.3	11	CYS775	0.000	
83	   C	35.333	82.511	-61.158	C.2	11	CYS775	0.000	
84	   O	35.638	83.218	-60.194	O.2	11	CYS775	0.000	
85	  CB	33.814	83.718	-62.690	C.3	11	CYS775	0.000	
86	  SG	32.232	83.908	-63.496	S.3	11	CYS775	0.000	
87	   N	36.195	81.687	-61.768	N.am	12	ARG776	0.000	
88	  CA	37.602	81.700	-61.404	C.3	12	ARG776	0.000	
89	   C	38.440	82.341	-62.495	C.2	12	ARG776	0.000	
90	   O	38.107	82.286	-63.682	O.2	12	ARG776	0.000	
91	  CB	38.131	80.297	-61.081	C.3	12	ARG776	0.000	
92	  CG	38.629	79.486	-62.212	C.3	12	ARG776	0.000	
93	  CD	39.002	78.091	-61.666	C.3	12	ARG776	0.000	
94	  NE	39.675	77.305	-62.671	N.pl3	12	ARG776	0.000	
95	  CZ	40.957	77.454	-63.017	C.cat	12	ARG776	0.000	
96	 NH1	41.737	78.349	-62.407	N.pl3	12	ARG776	0.000	
97	 NH2	41.475	76.670	-63.968	N.pl3	12	ARG776	0.000	
98	   N	39.527	82.968	-62.058	N.am	13	LEU777	0.000	
99	  CA	40.517	83.546	-62.959	C.3	13	LEU777	0.000	
100	   C	41.350	82.432	-63.581	C.2	13	LEU777	0.000	
101	   O	41.839	81.552	-62.870	O.2	13	LEU777	0.000	
102	  CB	41.411	84.509	-62.183	C.3	13	LEU777	0.000	
103	  CG	42.631	85.108	-62.863	C.3	13	LEU777	0.000	
104	 CD1	42.196	85.969	-64.042	C.3	13	LEU777	0.000	
105	 CD2	43.382	85.933	-61.819	C.3	13	LEU777	0.000	
106	   N	44.346	89.978	-68.130	N.am	14	LEU788	0.000	
107	  CA	43.731	88.918	-67.343	C.3	14	LEU788	0.000	
108	   C	42.739	88.144	-68.202	C.2	14	LEU788	0.000	
109	   O	41.995	88.741	-68.985	O.2	14	LEU788	0.000	
110	  CB	43.033	89.479	-66.113	C.3	14	LEU788	0.000	
111	  CG	43.816	90.416	-65.201	C.3	14	LEU788	0.000	
112	 CD1	42.864	91.484	-64.548	C.3	14	LEU788	0.000	
113	 CD2	44.580	89.649	-64.138	C.3	14	LEU788	0.000	
114	   N	39.736	85.026	-68.563	N.am	15	MET790	0.000	
115	  CA	38.721	84.158	-67.971	C.3	15	MET790	0.000	
116	   C	37.826	83.675	-69.098	C.2	15	MET790	0.000	
117	   O	37.980	84.091	-70.252	O.2	15	MET790	0.000	
118	  CB	37.924	84.910	-66.896	C.3	15	MET790	0.000	
119	  CG	37.020	86.024	-67.473	C.3	15	MET790	0.000	
120	  SD	36.038	86.864	-66.207	S.3	15	MET790	0.000	
121	  CE	34.883	85.574	-65.741	C.3	15	MET790	0.000	
122	   N	31.627	87.414	-60.276	N.am	16	THR854	0.000	
123	  CA	32.925	87.707	-60.872	C.3	16	THR854	0.000	
124	   C	33.567	88.906	-60.183	C.2	16	THR854	0.000	
125	   O	32.918	89.656	-59.449	O.2	16	THR854	0.000	
126	  CB	32.807	87.994	-62.375	C.3	16	THR854	0.000	
127	 CG2	32.205	89.404	-62.612	C.3	16	THR854	0.000	
128	 OG1	34.109	87.948	-62.971	O.3	16	THR854	0.000	
129	   N	34.871	89.069	-60.428	N.am	17	ASP855	0.000	
130	  CA	35.601	90.318	-60.168	C.3	17	ASP855	0.000	
131	   C	35.711	90.649	-58.680	C.2	17	ASP855	0.000	
132	   O	35.641	91.809	-58.288	O.2	17	ASP855	0.000	
133	  CB	34.982	91.484	-60.942	C.3	17	ASP855	0.000	
134	  CG	35.277	91.402	-62.425	C.2	17	ASP855	0.000	
135	 OD1	35.905	90.434	-62.883	O.co2	17	ASP855	0.000	
136	 OD2	34.867	92.289	-63.156	O.co2	17	ASP855	0.000	
137	   N	35.885	89.629	-57.853	N.am	18	PHE856	0.000	
138	  CA	36.062	89.794	-56.418	C.3	18	PHE856	0.000	
139	   C	37.551	89.861	-56.082	C.2	18	PHE856	0.000	
140	   O	38.411	89.502	-56.893	O.2	18	PHE856	0.000	
141	  CB	35.422	88.621	-55.674	C.3	18	PHE856	0.000	
142	  CG	36.010	87.259	-56.094	C.2	18	PHE856	0.000	
143	 CD1	37.151	86.751	-55.487	C.2	18	PHE856	0.000	
144	 CD2	35.440	86.536	-57.130	C.2	18	PHE856	0.000	
145	 CE1	37.684	85.536	-55.877	C.2	18	PHE856	0.000	
146	 CE2	35.984	85.323	-57.552	C.2	18	PHE856	0.000	
147	  CZ	37.099	84.817	-56.920	C.2	18	PHE856	0.000	
148	   N	39.763	92.382	-55.023	N.am	19	LEU858	0.000	
149	  CA	40.715	93.448	-55.327	C.3	19	LEU858	0.000	
150	   C	41.184	94.241	-54.107	C.2	19	LEU858	0.000	
151	   O	42.191	94.944	-54.215	O.2	19	LEU858	0.000	
152	  CB	40.105	94.419	-56.333	C.3	19	LEU858	0.000	
153	  CG	40.201	94.107	-57.823	C.3	19	LEU858	0.000	
154	 CD1	39.647	92.720	-58.211	C.3	19	LEU858	0.000	
155	 CD2	39.503	95.211	-58.604	C.3	19	LEU858	0.000	
156	   N	44.884	94.758	-53.208	N.am	20	LEU861	0.000	
157	  CA	45.693	95.404	-54.238	C.3	20	LEU861	0.000	
158	   C	45.496	96.915	-54.269	C.2	20	LEU861	0.000	
159	   O	46.333	97.626	-54.836	O.2	20	LEU861	0.000	
160	  CB	45.370	94.782	-55.604	C.3	20	LEU861	0.000	
161	  CG	45.598	93.260	-55.606	C.3	20	LEU861	0.000	
162	 CD1	45.049	92.624	-56.859	C.3	20	LEU861	0.000	
163	 CD2	47.083	92.921	-55.453	C.3	20	LEU861	0.000	
164	   N	44.427	97.418	-53.657	N.am	21	LEU862	0.000	
165	  CA	44.107	98.842	-53.638	C.3	21	LEU862	0.000	
166	   C	44.417	99.509	-52.303	C.2	21	LEU862	0.000	
167	   O	44.184	100.721	-52.157	O.2	21	LEU862	0.000	
168	  CB	42.625	99.048	-53.967	C.3	21	LEU862	0.000	
169	  CG	42.087	98.313	-55.187	C.3	21	LEU862	0.000	
170	 CD1	40.574	98.477	-55.221	C.3	21	LEU862	0.000	
171	 CD2	42.728	98.864	-56.450	C.3	21	LEU862	0.000	
172	   N	46.092	103.089	-51.915	N.am	22	GLU865	0.000	
173	  CA	45.431	104.291	-52.394	C.3	22	GLU865	0.000	
174	   C	43.961	104.396	-51.987	C.2	22	GLU865	0.000	
175	   O	43.378	105.483	-52.108	O.2	22	GLU865	0.000	
176	  CB	45.571	104.366	-53.920	C.3	22	GLU865	0.000	
177	  CG	45.686	103.027	-54.629	C.3	22	GLU865	0.000	
178	  CD	45.980	103.195	-56.099	C.2	22	GLU865	0.000	
179	 OE1	47.139	103.016	-56.496	O.co2	22	GLU865	0.000	
180	 OE2	45.056	103.551	-56.856	O.co2	22	GLU865	0.000	
181	   N	40.771	107.791	-52.595	N.am	23	TYR869	0.000	
182	  CA	39.825	107.846	-53.706	C.3	23	TYR869	0.000	
183	   C	38.689	108.826	-53.434	C.2	23	TYR869	0.000	
184	   O	38.096	108.836	-52.348	O.2	23	TYR869	0.000	
185	  CB	39.233	106.459	-53.977	C.3	23	TYR869	0.000	
186	  CG	40.200	105.432	-54.498	C.2	23	TYR869	0.000	
187	 CD1	41.361	105.810	-55.156	C.2	23	TYR869	0.000	
188	 CD2	39.946	104.078	-54.337	C.2	23	TYR869	0.000	
189	 CE1	42.242	104.866	-55.636	C.2	23	TYR869	0.000	
190	 CE2	40.819	103.125	-54.814	C.2	23	TYR869	0.000	
191	  CZ	41.968	103.525	-55.463	C.2	23	TYR869	0.000	
192	  OH	42.853	102.584	-55.941	O.3	23	TYR869	0.000	
@<TRIPOS>BOND
1 1 2 1
2 2 3 1
3 2 5 1
4 3 4 2
5 5 6 1
6 6 7 2
7 6 8 1
8 7 9 1
9 8 10 2
10 9 11 2
11 10 11 1
12 12 13 1
13 13 14 1
14 13 16 1
15 14 15 2
16 16 17 1
17 16 18 1
18 19 20 1
19 20 21 1
20 20 23 1
21 21 22 2
22 21 24 1
23 24 25 1
24 25 26 1
25 25 28 1
26 26 27 2
27 26 32 1
28 28 29 1
29 28 30 1
30 29 31 1
31 32 33 1
32 33 34 1
33 33 36 1
34 34 35 2
35 36 37 1
36 37 38 1
37 38 39 1
38 39 40 1
39 41 42 1
40 42 43 1
41 42 45 1
42 43 44 2
43 45 46 1
44 46 47 1
45 46 48 1
46 49 50 1
47 50 51 1
48 50 53 1
49 51 52 2
50 53 54 1
51 54 55 1
52 55 56 2
53 55 57 1
54 58 59 1
55 59 60 1
56 59 62 1
57 60 61 2
58 62 63 1
59 62 64 1
60 65 66 1
61 66 67 1
62 66 69 1
63 67 68 2
64 69 70 1
65 69 71 1
66 70 72 1
67 73 74 1
68 74 75 1
69 74 77 1
70 75 76 2
71 77 78 1
72 78 79 1
73 79 80 1
74 81 82 1
75 82 83 1
76 82 85 1
77 83 84 2
78 83 87 1
79 85 86 1
80 87 88 1
81 88 89 1
82 88 91 1
83 89 90 2
84 89 98 1
85 91 92 1
86 92 93 1
87 93 94 1
88 94 95 1
89 95 96 2
90 95 97 1
91 98 99 1
92 99 100 1
93 99 102 1
94 100 101 2
95 102 103 1
96 103 104 1
97 103 105 1
98 106 107 1
99 107 108 1
100 107 110 1
101 108 109 2
102 110 111 1
103 111 112 1
104 111 113 1
105 114 115 1
106 115 116 1
107 115 118 1
108 116 117 2
109 118 119 1
110 119 120 1
111 120 121 1
112 122 123 1
113 123 124 1
114 123 126 1
115 124 125 2
116 124 129 1
117 126 127 1
118 126 128 1
119 129 130 1
120 130 131 1
121 130 133 1
122 131 132 2
123 131 137 1
124 133 134 1
125 134 135 2
126 134 136 1
127 137 138 1
128 138 139 1
129 138 141 1
130 139 140 2
131 141 142 1
132 142 143 2
133 142 144 1
134 143 145 1
135 144 146 2
136 145 147 2
137 146 147 1
138 148 149 1
139 149 150 1
140 149 152 1
141 150 151 2
142 152 153 1
143 153 154 1
144 153 155 1
145 156 157 1
146 157 158 1
147 157 160 1
148 158 159 2
149 158 164 1
150 160 161 1
151 161 162 1
152 161 163 1
153 164 165 1
154 165 166 1
155 165 168 1
156 166 167 2
157 168 169 1
158 169 170 1
159 169 171 1
160 172 173 1
161 173 174 1
162 173 176 1
163 174 175 2
164 176 177 1
165 177 178 1
166 178 179 2
167 178 180 1
168 181 182 1
169 182 183 1
170 182 185 1
171 183 184 2
172 185 186 1
173 186 187 2
174 186 188 1
175 187 189 1
176 188 190 2
177 189 191 2
178 190 191 1
179 191 192 1
@<TRIPOS>SUBSTRUCTURE
1	PHE723	1	RESIDUE	1 B	PHE
2	VAL726	12	RESIDUE	1 B	VAL
3	ALA743	19	RESIDUE	1 B	ALA
4	ILE744	24	RESIDUE	1 B	ILE
5	LYS745	32	RESIDUE	1 B	LYS
6	LEU747	41	RESIDUE	1 B	LEU
7	GLU749	49	RESIDUE	1 B	GLU
8	THR751	58	RESIDUE	1 B	THR
9	ILE759	65	RESIDUE	1 B	ILE
10	MET766	73	RESIDUE	1 B	MET
11	CYS775	81	RESIDUE	1 B	CYS
12	ARG776	87	RESIDUE	1 B	ARG
13	LEU777	98	RESIDUE	1 B	LEU
14	LEU788	106	RESIDUE	1 B	LEU
15	MET790	114	RESIDUE	1 B	MET
16	THR854	122	RESIDUE	1 B	THR
17	ASP855	129	RESIDUE	1 B	ASP
18	PHE856	137	RESIDUE	1 B	PHE
19	LEU858	148	RESIDUE	1 B	LEU
20	LEU861	156	RESIDUE	1 B	LEU
21	LEU862	164	RESIDUE	1 B	LEU
22	GLU865	172	RESIDUE	1 B	GLU
23	TYR869	181	RESIDUE	1 B	TYR
