# created with PyMOL 2.5.2
@<TRIPOS>MOLECULE
AR_3V49_TargetProtein
196 186 23              
SMALL
USER_CHARGES
@<TRIPOS>ATOM
1	   N	32.453	0.139	-3.619	N.am	1	LEU701	0.000	
2	  CA	32.731	-0.122	-2.195	C.3	1	LEU701	0.000	
3	   C	33.741	0.882	-1.666	C.2	1	LEU701	0.000	
4	   O	33.648	1.280	-0.507	O.2	1	LEU701	0.000	
5	  CB	33.223	-1.541	-1.947	C.3	1	LEU701	0.000	
6	  CG	33.401	-2.059	-0.515	C.3	1	LEU701	0.000	
7	 CD1	32.121	-2.251	0.240	C.3	1	LEU701	0.000	
8	 CD2	34.245	-3.349	-0.672	C.3	1	LEU701	0.000	
9	   N	31.801	3.853	-0.806	N.am	2	LEU704	0.000	
10	  CA	30.899	3.709	0.358	C.3	2	LEU704	0.000	
11	   C	31.707	3.748	1.647	C.2	2	LEU704	0.000	
12	   O	31.272	4.322	2.657	O.2	2	LEU704	0.000	
13	  CB	30.107	2.426	0.224	C.3	2	LEU704	0.000	
14	  CG	29.039	2.425	-0.896	C.3	2	LEU704	0.000	
15	 CD1	28.655	0.991	-1.176	C.3	2	LEU704	0.000	
16	 CD2	27.868	3.282	-0.456	C.3	2	LEU704	0.000	
17	   N	32.883	3.128	1.606	N.am	3	ASN705	0.000	
18	  CA	33.790	3.203	2.736	C.3	3	ASN705	0.000	
19	   C	34.163	4.652	3.070	C.2	3	ASN705	0.000	
20	   O	34.144	5.122	4.217	O.2	3	ASN705	0.000	
21	  CB	35.089	2.396	2.457	C.3	3	ASN705	0.000	
22	  CG	34.980	0.959	2.938	C.2	3	ASN705	0.000	
23	 ND2	35.605	0.018	2.222	N.pl3	3	ASN705	0.000	
24	 OD1	34.351	0.646	3.967	O.2	3	ASN705	0.000	
25	   N	32.528	7.417	2.127	N.am	4	LEU707	0.000	
26	  CA	31.339	8.152	2.564	C.3	4	LEU707	0.000	
27	   C	30.994	7.821	4.012	C.2	4	LEU707	0.000	
28	   O	30.704	8.714	4.806	O.2	4	LEU707	0.000	
29	  CB	30.148	7.827	1.640	C.3	4	LEU707	0.000	
30	  CG	28.858	8.584	1.942	C.3	4	LEU707	0.000	
31	 CD1	29.036	10.098	1.881	C.3	4	LEU707	0.000	
32	 CD2	27.752	8.156	0.977	C.3	4	LEU707	0.000	
33	   N	31.042	6.527	4.302	N.am	5	GLY708	0.000	
34	  CA	30.765	6.003	5.623	C.3	5	GLY708	0.000	
35	   C	31.633	6.641	6.706	C.2	5	GLY708	0.000	
36	   O	31.162	7.068	7.773	O.2	5	GLY708	0.000	
37	   N	30.694	10.403	7.016	N.am	6	GLN711	0.000	
38	  CA	29.448	10.604	7.761	C.3	6	GLN711	0.000	
39	   C	29.673	10.322	9.241	C.2	6	GLN711	0.000	
40	   O	29.082	10.996	10.097	O.2	6	GLN711	0.000	
41	  CB	28.334	9.713	7.196	C.3	6	GLN711	0.000	
42	  CG	27.745	10.195	5.884	C.3	6	GLN711	0.000	
43	  CD	26.757	11.334	5.970	C.2	6	GLN711	0.000	
44	 NE2	26.108	11.596	4.832	N.pl3	6	GLN711	0.000	
45	 OE1	26.525	11.988	6.993	O.2	6	GLN711	0.000	
46	   N	25.497	4.091	14.402	N.am	7	TRP741	0.000	
47	  CA	25.842	4.884	13.203	C.3	7	TRP741	0.000	
48	   C	25.222	4.345	11.921	C.2	7	TRP741	0.000	
49	   O	24.675	5.148	11.145	O.2	7	TRP741	0.000	
50	  CB	27.357	5.071	13.025	C.3	7	TRP741	0.000	
51	  CG	28.111	3.948	12.413	C.2	7	TRP741	0.000	
52	 CD1	28.160	2.742	13.076	C.2	7	TRP741	0.000	
53	 CD2	28.875	3.754	11.217	C.2	7	TRP741	0.000	
54	 CE2	29.338	2.421	11.235	C.2	7	TRP741	0.000	
55	 CE3	29.240	4.523	10.103	C.2	7	TRP741	0.000	
56	 NE1	28.890	1.819	12.384	N.pl3	7	TRP741	0.000	
57	 CZ2	30.120	1.829	10.243	C.2	7	TRP741	0.000	
58	 CZ3	30.015	3.935	9.123	C.2	7	TRP741	0.000	
59	 CH2	30.454	2.616	9.179	C.2	7	TRP741	0.000	
60	   N	25.268	3.040	11.667	N.am	8	MET742	0.000	
61	  CA	24.666	2.563	10.405	C.3	8	MET742	0.000	
62	   C	23.180	2.877	10.376	C.2	8	MET742	0.000	
63	   O	22.644	3.293	9.347	O.2	8	MET742	0.000	
64	  CB	24.980	1.066	10.248	C.3	8	MET742	0.000	
65	  CG	24.792	0.468	8.861	C.3	8	MET742	0.000	
66	  SD	25.621	1.355	7.527	S.O	8	MET742	0.000	
67	  CE	27.309	1.341	8.197	C.3	8	MET742	0.000	
68	   N	22.695	6.428	9.462	N.am	9	MET745	0.000	
69	  CA	22.994	6.751	8.065	C.3	9	MET745	0.000	
70	   C	21.869	6.264	7.151	C.2	9	MET745	0.000	
71	   O	21.476	6.957	6.214	O.2	9	MET745	0.000	
72	  CB	24.337	6.183	7.605	C.3	9	MET745	0.000	
73	  CG	25.583	6.772	8.255	C.3	9	MET745	0.000	
74	  SD	27.037	6.373	7.235	S.3	9	MET745	0.000	
75	  CE	27.121	4.593	7.426	C.3	9	MET745	0.000	
76	   N	21.324	5.084	7.448	N.am	10	VAL746	0.000	
77	  CA	20.188	4.557	6.666	C.3	10	VAL746	0.000	
78	   C	18.988	5.482	6.689	C.2	10	VAL746	0.000	
79	   O	18.419	5.789	5.631	O.2	10	VAL746	0.000	
80	  CB	19.811	3.166	7.210	C.3	10	VAL746	0.000	
81	 CG1	18.513	2.644	6.613	C.3	10	VAL746	0.000	
82	 CG2	20.955	2.219	6.857	C.3	10	VAL746	0.000	
83	   N	19.716	8.739	4.820	N.am	11	MET749	0.000	
84	  CA	19.800	8.513	3.381	C.3	11	MET749	0.000	
85	   C	18.405	8.327	2.817	C.2	11	MET749	0.000	
86	   O	18.053	8.853	1.767	O.2	11	MET749	0.000	
87	  CB	20.732	7.330	3.053	C.3	11	MET749	0.000	
88	  CG	21.054	7.307	1.549	C.3	11	MET749	0.000	
89	  SD	19.823	6.365	0.630	S.3	11	MET749	0.000	
90	  CE	20.157	4.722	1.307	C.3	11	MET749	0.000	
91	   N	16.876	11.771	2.540	N.am	12	ARG752	0.000	
92	  CA	17.397	12.531	1.398	C.3	12	ARG752	0.000	
93	   C	16.837	12.016	0.076	C.2	12	ARG752	0.000	
94	   O	16.589	12.824	-0.827	O.2	12	ARG752	0.000	
95	  CB	18.923	12.454	1.274	C.3	12	ARG752	0.000	
96	  CG	19.694	13.178	2.373	C.3	12	ARG752	0.000	
97	  CD	21.172	13.208	1.999	C.3	12	ARG752	0.000	
98	  NE	21.817	11.896	1.970	N.pl3	12	ARG752	0.000	
99	  CZ	22.240	11.236	3.044	C.cat	12	ARG752	0.000	
100	 NH1	22.076	11.762	4.263	N.pl3	12	ARG752	0.000	
101	 NH2	22.818	10.055	2.879	N.pl3	12	ARG752	0.000	
102	   N	22.620	8.590	-1.767	N.am	13	PHE764	0.000	
103	  CA	23.659	8.433	-0.747	C.3	13	PHE764	0.000	
104	   C	24.391	9.748	-0.503	C.2	13	PHE764	0.000	
105	   O	24.630	10.176	0.613	O.2	13	PHE764	0.000	
106	  CB	24.689	7.361	-1.163	C.3	13	PHE764	0.000	
107	  CG	24.200	5.929	-1.002	C.2	13	PHE764	0.000	
108	 CD1	23.333	5.369	-1.935	C.2	13	PHE764	0.000	
109	 CD2	24.609	5.137	0.054	C.3	13	PHE764	0.000	
110	 CE1	22.911	4.060	-1.816	C.2	13	PHE764	0.000	
111	 CE2	24.177	3.829	0.182	C.3	13	PHE764	0.000	
112	  CZ	23.318	3.274	-0.754	C.2	13	PHE764	0.000	
113	   N	24.607	-5.103	-3.087	N.am	14	MET780	0.000	
114	  CA	23.699	-4.873	-1.970	C.3	14	MET780	0.000	
115	   C	22.275	-4.643	-2.473	C.2	14	MET780	0.000	
116	   O	21.547	-3.789	-1.939	O.2	14	MET780	0.000	
117	  CB	24.161	-3.669	-1.148	C.3	14	MET780	0.000	
118	  CG	25.650	-3.559	-0.849	C.3	14	MET780	0.000	
119	  SD	25.981	-2.323	0.429	S.3	14	MET780	0.000	
120	  CE	25.418	-0.805	-0.323	C.3	14	MET780	0.000	
121	   N	15.823	-0.067	1.471	N.am	15	MET787	0.000	
122	  CA	16.047	1.341	1.792	C.3	15	MET787	0.000	
123	   C	15.186	2.238	0.903	C.2	15	MET787	0.000	
124	   O	14.706	3.293	1.313	O.2	15	MET787	0.000	
125	  CB	17.537	1.726	1.708	C.3	15	MET787	0.000	
126	  CG	18.349	1.066	2.822	C.3	15	MET787	0.000	
127	  SD	20.052	1.639	2.942	S.3	15	MET787	0.000	
128	  CE	20.794	0.928	1.477	C.3	15	MET787	0.000	
129	   N	23.167	-4.622	6.331	N.am	16	LEU873	0.000	
130	  CA	24.385	-3.965	5.858	C.3	16	LEU873	0.000	
131	   C	25.614	-4.458	6.624	C.2	16	LEU873	0.000	
132	   O	26.649	-4.715	5.990	O.2	16	LEU873	0.000	
133	  CB	24.253	-2.440	5.985	C.3	16	LEU873	0.000	
134	  CG	23.198	-1.856	5.015	C.3	16	LEU873	0.000	
135	 CD1	22.848	-0.424	5.384	C.3	16	LEU873	0.000	
136	 CD2	23.673	-1.957	3.567	C.3	16	LEU873	0.000	
137	   N	25.456	-4.602	7.942	N.am	17	HIS874	0.000	
138	  CA	26.557	-5.087	8.782	C.3	17	HIS874	0.000	
139	   C	26.961	-6.505	8.378	C.2	17	HIS874	0.000	
140	   O	28.156	-6.768	8.217	O.2	17	HIS874	0.000	
141	  CB	26.176	-5.061	10.270	C.3	17	HIS874	0.000	
142	  CG	26.167	-3.685	10.867	C.2	17	HIS874	0.000	
143	 CD2	25.345	-3.129	11.786	C.2	17	HIS874	0.000	
144	 ND1	27.100	-2.727	10.537	N.pl3	17	HIS874	0.000	
145	 CE1	26.846	-1.622	11.232	C.2	17	HIS874	0.000	
146	 NE2	25.780	-1.849	11.985	N.pl3	17	HIS874	0.000	
147	   N	26.489	-8.140	5.512	N.am	18	PHE876	0.000	
148	  CA	27.134	-8.127	4.196	C.3	18	PHE876	0.000	
149	   C	28.579	-7.666	4.289	C.2	18	PHE876	0.000	
150	   O	29.500	-8.215	3.671	O.2	18	PHE876	0.000	
151	  CB	26.296	-7.233	3.269	C.3	18	PHE876	0.000	
152	  CG	27.040	-6.784	2.012	C.2	18	PHE876	0.000	
153	 CD1	27.663	-5.550	1.937	C.2	18	PHE876	0.000	
154	 CD2	27.071	-7.643	0.913	C.2	18	PHE876	0.000	
155	 CE1	28.313	-5.169	0.773	C.2	18	PHE876	0.000	
156	 CE2	27.738	-7.272	-0.241	C.2	18	PHE876	0.000	
157	  CZ	28.367	-6.040	-0.310	C.2	18	PHE876	0.000	
158	   N	28.836	-6.590	5.048	N.am	19	THR877	0.000	
159	  CA	30.181	-6.029	5.103	C.3	19	THR877	0.000	
160	   C	31.147	-6.825	5.971	C.2	19	THR877	0.000	
161	   O	32.339	-6.981	5.673	O.2	19	THR877	0.000	
162	  CB	30.067	-4.564	5.585	C.3	19	THR877	0.000	
163	 CG2	31.393	-3.863	5.401	C.3	19	THR877	0.000	
164	 OG1	29.090	-3.890	4.756	O.3	19	THR877	0.000	
165	   N	40.369	-2.645	3.317	N.am	20	PHE891	0.000	
166	  CA	39.493	-1.898	4.220	C.3	20	PHE891	0.000	
167	   C	40.269	-0.844	5.007	C.2	20	PHE891	0.000	
168	   O	41.226	-1.056	5.733	O.2	20	PHE891	0.000	
169	  CB	38.722	-2.790	5.211	C.3	20	PHE891	0.000	
170	  CG	37.375	-3.235	4.670	C.2	20	PHE891	0.000	
171	 CD1	37.275	-4.453	4.015	C.2	20	PHE891	0.000	
172	 CD2	36.232	-2.467	4.800	C.2	20	PHE891	0.000	
173	 CE1	36.080	-4.878	3.493	C.2	20	PHE891	0.000	
174	 CE2	35.025	-2.893	4.273	C.2	20	PHE891	0.000	
175	  CZ	34.941	-4.110	3.625	C.2	20	PHE891	0.000	
176	   N	37.179	1.657	9.350	N.am	21	MET895	0.000	
177	  CA	36.110	0.698	9.030	C.3	21	MET895	0.000	
178	   C	36.514	-0.696	9.500	C.2	21	MET895	0.000	
179	   O	35.722	-1.456	10.049	O.2	21	MET895	0.000	
180	  CB	35.783	0.696	7.537	C.3	21	MET895	0.000	
181	  CG	35.261	2.030	7.004	C.3	21	MET895	0.000	
182	  SD	33.664	2.469	7.721	S.3	21	MET895	0.000	
183	  CE	34.090	3.481	9.122	C.3	21	MET895	0.000	
184	   N	37.791	-1.015	9.306	N.am	22	ALA896	0.000	
185	  CA	38.292	-2.317	9.735	C.3	22	ALA896	0.000	
186	   C	38.135	-2.476	11.231	C.2	22	ALA896	0.000	
187	   O	37.785	-3.536	11.757	O.2	22	ALA896	0.000	
188	  CB	39.759	-2.484	9.323	C.3	22	ALA896	0.000	
189	   N	34.260	-2.757	12.008	N.am	23	ILE899	0.000	
190	  CA	33.650	-4.014	11.548	C.3	23	ILE899	0.000	
191	   C	34.159	-5.196	12.356	C.2	23	ILE899	0.000	
192	   O	33.406	-6.152	12.564	O.2	23	ILE899	0.000	
193	  CB	33.887	-4.206	10.041	C.3	23	ILE899	0.000	
194	 CG1	33.271	-3.045	9.223	C.3	23	ILE899	0.000	
195	 CG2	33.378	-5.553	9.573	C.3	23	ILE899	0.000	
196	 CD1	33.958	-2.927	7.864	C.3	23	ILE899	0.000	
@<TRIPOS>BOND
1 1 2 1
2 2 3 1
3 2 5 1
4 3 4 2
5 5 6 1
6 6 7 1
7 6 8 1
8 9 10 1
9 10 11 1
10 10 13 1
11 11 12 2
12 11 17 1
13 13 14 1
14 14 15 1
15 14 16 1
16 17 18 1
17 18 19 1
18 18 21 1
19 19 20 2
20 21 22 1
21 22 23 1
22 22 24 2
23 25 26 1
24 26 27 1
25 26 29 1
26 27 28 2
27 27 33 1
28 29 30 1
29 30 31 1
30 30 32 1
31 33 34 1
32 34 35 1
33 35 36 2
34 37 38 1
35 38 39 1
36 38 41 1
37 39 40 2
38 41 42 1
39 42 43 1
40 43 44 1
41 43 45 2
42 46 47 1
43 47 48 1
44 47 50 1
45 48 49 2
46 48 60 1
47 50 51 1
48 51 52 2
49 51 53 1
50 52 56 1
51 53 54 2
52 53 55 1
53 54 57 1
54 55 58 2
55 54 56 1
56 57 59 2
57 58 59 1
58 60 61 1
59 61 62 1
60 61 64 1
61 62 63 2
62 64 65 1
63 65 66 1
64 66 67 1
65 68 69 1
66 69 70 1
67 69 72 1
68 70 71 2
69 70 76 1
70 72 73 1
71 73 74 1
72 74 75 1
73 76 77 1
74 77 78 1
75 77 80 1
76 78 79 2
77 80 81 1
78 80 82 1
79 83 84 1
80 84 85 1
81 84 87 1
82 85 86 2
83 87 88 1
84 88 89 1
85 89 90 1
86 91 92 1
87 92 93 1
88 92 95 1
89 93 94 2
90 95 96 1
91 96 97 1
92 97 98 1
93 98 99 1
94 99 100 2
95 99 101 1
96 102 103 1
97 103 104 1
98 103 106 1
99 104 105 2
100 106 107 1
101 107 108 2
102 107 109 1
103 108 110 1
104 109 111 2
105 110 112 2
106 111 112 1
107 113 114 1
108 114 115 1
109 114 117 1
110 115 116 2
111 117 118 1
112 118 119 1
113 119 120 1
114 121 122 1
115 122 123 1
116 122 125 1
117 123 124 2
118 125 126 1
119 126 127 1
120 127 128 1
121 129 130 1
122 130 131 1
123 130 133 1
124 131 132 2
125 131 137 1
126 133 134 1
127 134 135 1
128 134 136 1
129 137 138 1
130 138 139 1
131 138 141 1
132 139 140 2
133 141 142 1
134 142 143 2
135 142 144 1
136 143 146 1
137 144 145 2
138 145 146 1
139 147 148 1
140 148 149 1
141 148 151 1
142 149 150 2
143 149 158 1
144 151 152 1
145 152 153 2
146 152 154 1
147 153 155 1
148 154 156 2
149 155 157 2
150 156 157 1
151 158 159 1
152 159 160 1
153 159 162 1
154 160 161 2
155 162 163 1
156 162 164 1
157 165 166 1
158 166 167 1
159 166 169 1
160 167 168 2
161 169 170 1
162 170 171 2
163 170 172 1
164 171 173 1
165 172 174 2
166 173 175 2
167 174 175 1
168 176 177 1
169 177 178 1
170 177 180 1
171 178 179 2
172 178 184 1
173 180 181 1
174 181 182 1
175 182 183 1
176 184 185 1
177 185 186 1
178 185 188 1
179 186 187 2
180 189 190 1
181 190 191 1
182 190 193 1
183 191 192 2
184 193 194 1
185 193 195 1
186 194 196 1
@<TRIPOS>SUBSTRUCTURE
1	LEU701	1	RESIDUE	1 B	LEU
2	LEU704	9	RESIDUE	1 B	LEU
3	ASN705	17	RESIDUE	1 B	ASN
4	LEU707	25	RESIDUE	1 B	LEU
5	GLY708	33	RESIDUE	1 B	GLY
6	GLN711	37	RESIDUE	1 B	GLN
7	TRP741	46	RESIDUE	1 B	TRP
8	MET742	60	RESIDUE	1 B	MET
9	MET745	68	RESIDUE	1 B	MET
10	VAL746	76	RESIDUE	1 B	VAL
11	MET749	83	RESIDUE	1 B	MET
12	ARG752	91	RESIDUE	1 B	ARG
13	PHE764	102	RESIDUE	1 B	PHE
14	MET780	113	RESIDUE	1 B	MET
15	MET787	121	RESIDUE	1 B	MET
16	LEU873	129	RESIDUE	1 B	LEU
17	HIS874	137	RESIDUE	1 B	HIS
18	PHE876	147	RESIDUE	1 B	PHE
19	THR877	158	RESIDUE	1 B	THR
20	PHE891	165	RESIDUE	1 B	PHE
21	MET895	176	RESIDUE	1 B	MET
22	ALA896	184	RESIDUE	1 B	ALA
23	ILE899	189	RESIDUE	1 B	ILE
