# created with PyMOL 2.5.2
@<TRIPOS>MOLECULE
TRKA_4YNE_TargetProtein
148 141 19              
SMALL
USER_CHARGES
@<TRIPOS>ATOM
1	   N	-13.162	-46.608	-6.788	N.am	1	LEU516	0.000	
2	  CA	-14.539	-46.128	-6.743	C.3	1	LEU516	0.000	
3	   C	-15.473	-47.205	-7.272	C.2	1	LEU516	0.000	
4	   O	-16.606	-47.338	-6.815	O.2	1	LEU516	0.000	
5	  CB	-14.704	-44.844	-7.578	C.3	1	LEU516	0.000	
6	  CG	-14.133	-43.534	-7.035	C.3	1	LEU516	0.000	
7	 CD1	-14.123	-42.461	-8.114	C.3	1	LEU516	0.000	
8	 CD2	-14.933	-43.065	-5.809	C.3	1	LEU516	0.000	
9	   N	-14.993	-47.963	-8.258	N.am	2	GLY517	0.000	
10	  CA	-15.823	-48.960	-8.907	C.3	2	GLY517	0.000	
11	   C	-15.113	-49.880	-9.883	C.2	2	GLY517	0.000	
12	   O	-14.023	-49.577	-10.374	O.2	2	GLY517	0.000	
13	   N	-16.515	-51.371	-17.478	N.am	3	PHE521	0.000	
14	  CA	-15.725	-50.188	-17.800	C.3	3	PHE521	0.000	
15	   C	-14.285	-50.268	-17.304	C.2	3	PHE521	0.000	
16	   O	-13.476	-49.407	-17.626	O.2	3	PHE521	0.000	
17	  CB	-16.399	-48.950	-17.211	C.3	3	PHE521	0.000	
18	  CG	-16.868	-49.137	-15.788	C.2	3	PHE521	0.000	
19	 CD1	-15.981	-49.022	-14.728	C.2	3	PHE521	0.000	
20	 CD2	-18.191	-49.439	-15.516	C.2	3	PHE521	0.000	
21	 CE1	-16.407	-49.197	-13.419	C.2	3	PHE521	0.000	
22	 CE2	-18.623	-49.616	-14.210	C.2	3	PHE521	0.000	
23	  CZ	-17.728	-49.495	-13.160	C.2	3	PHE521	0.000	
24	   N	-12.001	-47.979	-11.843	N.am	4	VAL524	0.000	
25	  CA	-12.005	-46.529	-11.707	C.3	4	VAL524	0.000	
26	   C	-11.597	-46.148	-10.291	C.2	4	VAL524	0.000	
27	   O	-12.126	-46.697	-9.321	O.2	4	VAL524	0.000	
28	  CB	-13.391	-45.927	-12.041	C.3	4	VAL524	0.000	
29	 CG1	-13.330	-44.404	-12.048	C.3	4	VAL524	0.000	
30	 CG2	-13.868	-46.437	-13.386	C.3	4	VAL524	0.000	
31	   N	-11.465	-38.517	-11.400	N.am	5	ALA542	0.000	
32	  CA	-11.634	-39.950	-11.533	C.3	5	ALA542	0.000	
33	   C	-10.647	-40.468	-12.565	C.2	5	ALA542	0.000	
34	   O	-10.453	-39.850	-13.620	O.2	5	ALA542	0.000	
35	  CB	-13.035	-40.288	-11.920	C.3	5	ALA542	0.000	
36	   N	-9.468	-43.886	-14.772	N.am	6	LYS544	0.000	
37	  CA	-9.712	-45.247	-15.231	C.3	6	LYS544	0.000	
38	   C	-8.392	-45.891	-15.615	C.2	6	LYS544	0.000	
39	   O	-7.722	-45.450	-16.548	O.2	6	LYS544	0.000	
40	  CB	-10.683	-45.261	-16.402	C.3	6	LYS544	0.000	
41	  CG	-10.853	-46.610	-17.073	C.3	6	LYS544	0.000	
42	  CD	-11.808	-46.465	-18.237	C.3	6	LYS544	0.000	
43	  CE	-11.653	-47.570	-19.239	C.3	6	LYS544	0.000	
44	  NZ	-12.645	-47.374	-20.328	N.4	6	LYS544	0.000	
45	   N	-19.184	-36.270	-19.709	N.am	7	VAL573	0.000	
46	  CA	-18.281	-36.175	-18.557	C.3	7	VAL573	0.000	
47	   C	-16.947	-35.631	-19.072	C.2	7	VAL573	0.000	
48	   O	-16.449	-36.051	-20.122	O.2	7	VAL573	0.000	
49	  CB	-18.103	-37.549	-17.819	C.3	7	VAL573	0.000	
50	 CG1	-17.443	-38.591	-18.727	C.3	7	VAL573	0.000	
51	 CG2	-17.312	-37.376	-16.485	C.3	7	VAL573	0.000	
52	   N	-10.538	-38.190	-15.781	N.am	8	PHE589	0.000	
53	  CA	-11.847	-37.556	-15.910	C.3	8	PHE589	0.000	
54	   C	-12.170	-36.626	-14.744	C.2	8	PHE589	0.000	
55	   O	-11.623	-36.786	-13.641	O.2	8	PHE589	0.000	
56	  CB	-12.957	-38.614	-15.983	C.3	8	PHE589	0.000	
57	  CG	-12.830	-39.569	-17.140	C.2	8	PHE589	0.000	
58	 CD1	-12.107	-40.744	-17.015	C.2	8	PHE589	0.000	
59	 CD2	-13.444	-39.292	-18.351	C.2	8	PHE589	0.000	
60	 CE1	-11.994	-41.623	-18.078	C.2	8	PHE589	0.000	
61	 CE2	-13.339	-40.177	-19.417	C.2	8	PHE589	0.000	
62	  CZ	-12.611	-41.348	-19.273	C.2	8	PHE589	0.000	
63	   N	-13.109	-35.704	-14.941	N.am	9	GLU590	0.000	
64	  CA	-13.634	-34.988	-13.776	C.3	9	GLU590	0.000	
65	   C	-14.279	-35.996	-12.811	C.2	9	GLU590	0.000	
66	   O	-14.800	-37.038	-13.227	O.2	9	GLU590	0.000	
67	  CB	-14.649	-33.912	-14.173	C.3	9	GLU590	0.000	
68	  CG	-15.927	-34.451	-14.809	C.3	9	GLU590	0.000	
69	  CD	-16.942	-33.352	-15.101	C.2	9	GLU590	0.000	
70	 OE1	-17.564	-33.381	-16.178	O.co2	9	GLU590	0.000	
71	 OE2	-17.126	-32.459	-14.251	O.co2	9	GLU590	0.000	
72	   N	-14.229	-35.693	-11.523	N.am	10	TYR591	0.000	
73	  CA	-14.846	-36.570	-10.527	C.3	10	TYR591	0.000	
74	   C	-16.326	-36.249	-10.381	C.2	10	TYR591	0.000	
75	   O	-16.702	-35.113	-10.108	O.2	10	TYR591	0.000	
76	  CB	-14.126	-36.436	-9.185	C.3	10	TYR591	0.000	
77	  CG	-14.836	-37.071	-7.998	C.2	10	TYR591	0.000	
78	 CD1	-15.250	-38.403	-8.027	C.2	10	TYR591	0.000	
79	 CD2	-15.063	-36.340	-6.838	C.2	10	TYR591	0.000	
80	 CE1	-15.893	-38.983	-6.918	C.2	10	TYR591	0.000	
81	 CE2	-15.700	-36.905	-5.736	C.2	10	TYR591	0.000	
82	  CZ	-16.111	-38.223	-5.780	C.2	10	TYR591	0.000	
83	  OH	-16.736	-38.769	-4.670	O.3	10	TYR591	0.000	
84	   N	-17.167	-37.246	-10.599	N.am	11	MET592	0.000	
85	  CA	-18.612	-37.060	-10.487	C.3	11	MET592	0.000	
86	   C	-19.067	-37.655	-9.146	C.2	11	MET592	0.000	
87	   O	-19.178	-38.883	-9.015	O.2	11	MET592	0.000	
88	  CB	-19.322	-37.720	-11.683	C.3	11	MET592	0.000	
89	  CG	-18.867	-37.155	-13.062	C.3	11	MET592	0.000	
90	  SD	-19.247	-35.398	-13.223	S.3	11	MET592	0.000	
91	  CE	-20.991	-35.496	-13.667	C.3	11	MET592	0.000	
92	   N	-21.622	-40.704	-8.568	N.am	12	GLY595	0.000	
93	  CA	-21.470	-42.016	-9.174	C.3	12	GLY595	0.000	
94	   C	-22.385	-42.227	-10.366	C.2	12	GLY595	0.000	
95	   O	-22.856	-41.255	-10.967	O.2	12	GLY595	0.000	
96	   N	-22.655	-43.488	-10.713	N.am	13	ASP596	0.000	
97	  CA	-23.427	-43.740	-11.929	C.3	13	ASP596	0.000	
98	   C	-24.896	-43.442	-11.649	C.2	13	ASP596	0.000	
99	   O	-25.356	-43.538	-10.504	O.2	13	ASP596	0.000	
100	  CB	-23.233	-45.172	-12.462	C.3	13	ASP596	0.000	
101	  CG	-23.999	-46.207	-11.667	C.2	13	ASP596	0.000	
102	 OD1	-25.210	-46.381	-11.928	O.co2	13	ASP596	0.000	
103	 OD2	-23.383	-46.862	-10.799	O.co2	13	ASP596	0.000	
104	   N	-26.897	-46.766	-16.259	N.am	14	ARG654	0.000	
105	  CA	-25.623	-47.264	-15.721	C.3	14	ARG654	0.000	
106	   C	-24.398	-46.607	-16.400	C.2	14	ARG654	0.000	
107	   O	-23.295	-46.645	-15.856	O.2	14	ARG654	0.000	
108	  CB	-25.546	-48.801	-15.845	C.3	14	ARG654	0.000	
109	  CG	-25.520	-49.302	-17.332	C.3	14	ARG654	0.000	
110	  CD	-25.442	-50.838	-17.452	C.3	14	ARG654	0.000	
111	  NE	-25.667	-51.232	-18.847	N.pl3	14	ARG654	0.000	
112	  CZ	-26.864	-51.484	-19.370	C.cat	14	ARG654	0.000	
113	 NH1	-27.942	-51.434	-18.606	N.pl3	14	ARG654	0.000	
114	 NH2	-26.992	-51.797	-20.654	N.pl3	14	ARG654	0.000	
115	   N	-24.604	-45.989	-17.563	N.am	15	ASN655	0.000	
116	  CA	-23.522	-45.332	-18.302	C.3	15	ASN655	0.000	
117	   C	-23.593	-43.811	-18.268	C.2	15	ASN655	0.000	
118	   O	-22.933	-43.139	-19.074	O.2	15	ASN655	0.000	
119	  CB	-23.497	-45.833	-19.760	C.3	15	ASN655	0.000	
120	  CG	-23.002	-47.264	-19.860	C.2	15	ASN655	0.000	
121	 ND2	-23.590	-48.050	-20.762	N.pl3	15	ASN655	0.000	
122	 OD1	-22.099	-47.658	-19.129	O.2	15	ASN655	0.000	
123	   N	-24.386	-43.282	-17.325	N.am	16	CYS656	0.000	
124	  CA	-24.454	-41.855	-17.029	C.3	16	CYS656	0.000	
125	   C	-23.911	-41.618	-15.619	C.2	16	CYS656	0.000	
126	   O	-23.906	-42.538	-14.788	O.2	16	CYS656	0.000	
127	  CB	-25.902	-41.329	-17.135	C.3	16	CYS656	0.000	
128	  SG	-26.610	-41.586	-18.848	S.3	16	CYS656	0.000	
129	   N	-23.466	-40.393	-15.367	N.am	17	LEU657	0.000	
130	  CA	-22.865	-40.006	-14.094	C.3	17	LEU657	0.000	
131	   C	-23.553	-38.780	-13.529	C.2	17	LEU657	0.000	
132	   O	-24.069	-37.939	-14.276	O.2	17	LEU657	0.000	
133	  CB	-21.374	-39.722	-14.258	C.3	17	LEU657	0.000	
134	  CG	-20.527	-40.915	-14.691	C.3	17	LEU657	0.000	
135	 CD1	-19.180	-40.451	-15.194	C.3	17	LEU657	0.000	
136	 CD2	-20.366	-41.902	-13.524	C.3	17	LEU657	0.000	
137	   N	-21.496	-40.748	-19.292	N.am	18	GLY667	0.000	
138	  CA	-20.231	-41.001	-18.629	C.3	18	GLY667	0.000	
139	   C	-19.366	-42.074	-19.261	C.2	18	GLY667	0.000	
140	   O	-18.154	-42.083	-19.097	O.2	18	GLY667	0.000	
141	   N	-19.975	-43.006	-19.962	N.am	19	ASP668	0.000	
142	  CA	-19.249	-44.084	-20.601	C.3	19	ASP668	0.000	
143	   C	-19.831	-44.316	-21.969	C.2	19	ASP668	0.000	
144	   O	-21.005	-44.402	-22.124	O.2	19	ASP668	0.000	
145	  CB	-19.310	-45.353	-19.795	C.3	19	ASP668	0.000	
146	  CG	-18.182	-46.293	-20.117	C.2	19	ASP668	0.000	
147	 OD1	-17.167	-45.862	-20.641	O.co2	19	ASP668	0.000	
148	 OD2	-18.289	-47.472	-19.833	O.co2	19	ASP668	0.000	
@<TRIPOS>BOND
1 1 2 1
2 2 3 1
3 2 5 1
4 3 4 2
5 3 9 1
6 5 6 1
7 6 7 1
8 6 8 1
9 9 10 1
10 10 11 1
11 11 12 2
12 13 14 1
13 14 15 1
14 14 17 1
15 15 16 2
16 17 18 1
17 18 19 2
18 18 20 1
19 19 21 1
20 20 22 2
21 21 23 2
22 22 23 1
23 24 25 1
24 25 26 1
25 25 28 1
26 26 27 2
27 28 29 1
28 28 30 1
29 31 32 1
30 32 33 1
31 32 35 1
32 33 34 2
33 36 37 1
34 37 38 1
35 37 40 1
36 38 39 2
37 40 41 1
38 41 42 1
39 42 43 1
40 43 44 1
41 45 46 1
42 46 47 1
43 46 49 1
44 47 48 2
45 49 50 1
46 49 51 1
47 52 53 1
48 53 54 1
49 53 56 1
50 54 55 2
51 54 63 1
52 56 57 1
53 57 58 2
54 57 59 1
55 58 60 1
56 59 61 2
57 60 62 2
58 61 62 1
59 63 64 1
60 64 65 1
61 64 67 1
62 65 66 2
63 65 72 1
64 67 68 1
65 68 69 1
66 69 70 2
67 69 71 1
68 72 73 1
69 73 74 1
70 73 76 1
71 74 75 2
72 74 84 1
73 76 77 1
74 77 78 2
75 77 79 1
76 78 80 1
77 79 81 2
78 80 82 2
79 81 82 1
80 82 83 1
81 84 85 1
82 85 86 1
83 85 88 1
84 86 87 2
85 88 89 1
86 89 90 1
87 90 91 1
88 92 93 1
89 93 94 1
90 94 95 2
91 94 96 1
92 96 97 1
93 97 98 1
94 97 100 1
95 98 99 2
96 100 101 1
97 101 102 2
98 101 103 1
99 104 105 1
100 105 106 1
101 105 108 1
102 106 107 2
103 106 115 1
104 108 109 1
105 109 110 1
106 110 111 1
107 111 112 1
108 112 113 2
109 112 114 1
110 115 116 1
111 116 117 1
112 116 119 1
113 117 118 2
114 117 123 1
115 119 120 1
116 120 121 1
117 120 122 2
118 123 124 1
119 124 125 1
120 124 127 1
121 125 126 2
122 125 129 1
123 127 128 1
124 129 130 1
125 130 131 1
126 130 133 1
127 131 132 2
128 133 134 1
129 134 135 1
130 134 136 1
131 137 138 1
132 138 139 1
133 139 140 2
134 139 141 1
135 141 142 1
136 142 143 1
137 142 145 1
138 143 144 2
139 145 146 1
140 146 147 2
141 146 148 1
@<TRIPOS>SUBSTRUCTURE
1	LEU516	1	RESIDUE	1 B	LEU
2	GLY517	9	RESIDUE	1 B	GLY
3	PHE521	13	RESIDUE	1 B	PHE
4	VAL524	24	RESIDUE	1 B	VAL
5	ALA542	31	RESIDUE	1 B	ALA
6	LYS544	36	RESIDUE	1 B	LYS
7	VAL573	45	RESIDUE	1 B	VAL
8	PHE589	52	RESIDUE	1 B	PHE
9	GLU590	63	RESIDUE	1 B	GLU
10	TYR591	72	RESIDUE	1 B	TYR
11	MET592	84	RESIDUE	1 B	MET
12	GLY595	92	RESIDUE	1 B	GLY
13	ASP596	96	RESIDUE	1 B	ASP
14	ARG654	104	RESIDUE	1 B	ARG
15	ASN655	115	RESIDUE	1 B	ASN
16	CYS656	123	RESIDUE	1 B	CYS
17	LEU657	129	RESIDUE	1 B	LEU
18	GLY667	137	RESIDUE	1 B	GLY
19	ASP668	141	RESIDUE	1 B	ASP
