# created with PyMOL 2.5.2
@<TRIPOS>MOLECULE
38_3HLL_TargetProtein
160 149 22              
SMALL
USER_CHARGES
@<TRIPOS>ATOM
1	   N	40.423	35.619	28.116	N.am	1	VAL30	0.000	
2	  CA	39.035	36.001	28.367	C.3	1	VAL30	0.000	
3	   C	38.072	34.846	28.110	C.2	1	VAL30	0.000	
4	   O	36.868	35.068	27.983	O.2	1	VAL30	0.000	
5	  CB	38.606	37.256	27.543	C.3	1	VAL30	0.000	
6	 CG1	39.451	38.471	27.936	C.3	1	VAL30	0.000	
7	 CG2	38.704	36.997	26.068	C.3	1	VAL30	0.000	
8	   N	40.521	32.687	23.584	N.am	2	VAL38	0.000	
9	  CA	40.529	34.119	23.333	C.3	2	VAL38	0.000	
10	   C	41.282	34.875	24.430	C.2	2	VAL38	0.000	
11	   O	41.103	34.614	25.631	O.2	2	VAL38	0.000	
12	  CB	39.089	34.674	23.218	C.3	2	VAL38	0.000	
13	 CG1	39.118	36.151	22.884	C.3	2	VAL38	0.000	
14	 CG2	38.282	33.898	22.156	C.3	2	VAL38	0.000	
15	   N	40.406	41.609	20.722	N.am	3	ALA51	0.000	
16	  CA	40.325	40.213	21.094	C.3	3	ALA51	0.000	
17	   C	41.127	39.393	20.072	C.2	3	ALA51	0.000	
18	   O	40.959	39.552	18.855	O.2	3	ALA51	0.000	
19	  CB	38.876	39.742	21.133	C.3	3	ALA51	0.000	
20	   N	41.984	38.520	20.572	N.am	4	VAL52	0.000	
21	  CA	42.763	37.636	19.710	C.3	4	VAL52	0.000	
22	   C	42.311	36.205	19.983	C.2	4	VAL52	0.000	
23	   O	42.348	35.755	21.132	O.2	4	VAL52	0.000	
24	  CB	44.254	37.741	19.984	C.3	4	VAL52	0.000	
25	 CG1	45.030	36.977	18.924	C.3	4	VAL52	0.000	
26	 CG2	44.705	39.225	20.063	C.3	4	VAL52	0.000	
27	   N	41.874	35.519	18.928	N.am	5	LYS53	0.000	
28	  CA	41.399	34.142	19.025	C.3	5	LYS53	0.000	
29	   C	42.409	33.204	18.369	C.2	5	LYS53	0.000	
30	   O	42.737	33.372	17.195	O.2	5	LYS53	0.000	
31	  CB	40.062	34.007	18.326	C.3	5	LYS53	0.000	
32	  CG	39.395	32.661	18.509	C.3	5	LYS53	0.000	
33	  CD	38.173	32.560	17.624	C.3	5	LYS53	0.000	
34	  CE	37.394	31.308	17.867	C.3	5	LYS53	0.000	
35	  NZ	38.067	30.112	17.315	N.4	5	LYS53	0.000	
36	   N	35.398	29.667	8.694	N.am	6	GLU71	0.000	
37	  CA	35.383	30.783	9.637	C.3	6	GLU71	0.000	
38	   C	36.240	31.944	9.118	C.2	6	GLU71	0.000	
39	   O	35.851	33.094	9.245	O.2	6	GLU71	0.000	
40	  CB	35.856	30.343	11.027	C.3	6	GLU71	0.000	
41	  CG	35.960	31.523	12.006	C.3	6	GLU71	0.000	
42	  CD	36.105	31.115	13.444	C.2	6	GLU71	0.000	
43	 OE1	35.905	31.993	14.332	O.co2	6	GLU71	0.000	
44	 OE2	36.445	29.937	13.697	O.co2	6	GLU71	0.000	
45	   N	34.616	35.533	8.235	N.am	7	LEU75	0.000	
46	  CA	35.154	36.723	8.930	C.3	7	LEU75	0.000	
47	   C	35.772	37.766	8.004	C.2	7	LEU75	0.000	
48	   O	35.641	38.976	8.251	O.2	7	LEU75	0.000	
49	  CB	36.182	36.312	9.988	C.3	7	LEU75	0.000	
50	  CG	35.648	35.769	11.322	C.3	7	LEU75	0.000	
51	 CD1	36.824	35.153	12.108	C.3	7	LEU75	0.000	
52	 CD2	34.969	36.848	12.174	C.3	7	LEU75	0.000	
53	   N	30.688	40.730	13.894	N.am	8	ILE84	0.000	
54	  CA	32.106	40.642	14.181	C.3	8	ILE84	0.000	
55	   C	32.867	40.483	12.869	C.2	8	ILE84	0.000	
56	   O	32.511	39.664	12.030	O.2	8	ILE84	0.000	
57	  CB	32.439	39.488	15.141	C.3	8	ILE84	0.000	
58	 CG1	31.881	39.789	16.534	C.3	8	ILE84	0.000	
59	 CG2	33.961	39.307	15.301	C.3	8	ILE84	0.000	
60	 CD1	32.717	40.722	17.366	C.3	8	ILE84	0.000	
61	   N	37.055	41.220	10.881	N.am	9	LEU86	0.000	
62	  CA	38.498	41.007	11.062	C.3	9	LEU86	0.000	
63	   C	39.321	42.294	10.989	C.2	9	LEU86	0.000	
64	   O	39.312	42.970	9.965	O.2	9	LEU86	0.000	
65	  CB	39.041	40.048	9.999	C.3	9	LEU86	0.000	
66	  CG	39.203	38.567	10.271	C.3	9	LEU86	0.000	
67	 CD1	40.009	37.928	9.129	C.3	9	LEU86	0.000	
68	 CD2	39.855	38.288	11.631	C.3	9	LEU86	0.000	
69	   N	43.140	35.062	14.900	N.am	10	LEU104	0.000	
70	  CA	42.146	35.970	14.360	C.3	10	LEU104	0.000	
71	   C	41.984	37.146	15.318	C.2	10	LEU104	0.000	
72	   O	41.956	36.958	16.523	O.2	10	LEU104	0.000	
73	  CB	40.813	35.252	14.257	C.3	10	LEU104	0.000	
74	  CG	40.818	33.961	13.444	C.3	10	LEU104	0.000	
75	 CD1	39.506	33.230	13.668	C.3	10	LEU104	0.000	
76	 CD2	41.040	34.266	11.961	C.3	10	LEU104	0.000	
77	   N	41.884	38.356	14.789	N.am	11	VAL105	0.000	
78	  CA	41.834	39.530	15.650	C.3	11	VAL105	0.000	
79	   C	40.650	40.451	15.307	C.2	11	VAL105	0.000	
80	   O	40.399	40.767	14.141	O.2	11	VAL105	0.000	
81	  CB	43.144	40.327	15.603	C.3	11	VAL105	0.000	
82	 CG1	44.401	39.449	15.816	C.3	11	VAL105	0.000	
83	 CG2	43.243	41.008	14.318	C.3	11	VAL105	0.000	
84	   N	39.933	40.869	16.346	N.am	12	THR106	0.000	
85	  CA	38.782	41.760	16.233	C.3	12	THR106	0.000	
86	   C	38.771	42.800	17.366	C.2	12	THR106	0.000	
87	   O	39.531	42.686	18.338	O.2	12	THR106	0.000	
88	  CB	37.470	40.943	16.227	C.3	12	THR106	0.000	
89	 CG2	37.151	40.398	17.612	C.3	12	THR106	0.000	
90	 OG1	36.390	41.752	15.738	O.3	12	THR106	0.000	
91	   N	37.913	43.817	17.225	N.am	13	HIE107	0.000	
92	  CA	37.720	44.826	18.267	C.3	13	HIE107	0.000	
93	   C	37.159	44.136	19.506	C.2	13	HIE107	0.000	
94	   O	36.178	43.423	19.401	O.2	13	HIE107	0.000	
95	  CB	36.666	45.864	17.865	C.3	13	HIE107	0.000	
96	  CG	36.997	46.675	16.653	C.2	13	HIE107	0.000	
97	 CD2	37.632	47.863	16.526	C.2	13	HIE107	0.000	
98	 ND1	36.565	46.335	15.389	N.2	13	HIE107	0.000	
99	 CE1	36.949	47.264	14.531	C.2	13	HIE107	0.000	
100	 NE2	37.603	48.199	15.196	N.pl3	13	HIE107	0.000	
101	   N	37.736	44.384	20.674	N.am	14	LEU108	0.000	
102	  CA	37.189	43.822	21.916	C.3	14	LEU108	0.000	
103	   C	35.878	44.501	22.295	C.2	14	LEU108	0.000	
104	   O	35.772	45.717	22.232	O.2	14	LEU108	0.000	
105	  CB	38.175	43.981	23.063	C.3	14	LEU108	0.000	
106	  CG	37.811	43.337	24.405	C.3	14	LEU108	0.000	
107	 CD1	37.780	41.817	24.320	C.3	14	LEU108	0.000	
108	 CD2	38.824	43.794	25.440	C.3	14	LEU108	0.000	
109	   N	34.894	43.688	22.675	N.am	15	MET109	0.000	
110	  CA	33.596	44.163	23.128	C.3	15	MET109	0.000	
111	   C	33.555	44.049	24.642	C.2	15	MET109	0.000	
112	   O	33.315	45.041	25.319	O.2	15	MET109	0.000	
113	  CB	32.479	43.371	22.449	C.3	15	MET109	0.000	
114	  CG	32.526	43.484	20.912	C.3	15	MET109	0.000	
115	  SD	32.201	45.157	20.309	S.3	15	MET109	0.000	
116	  CE	30.423	45.159	20.401	C.3	15	MET109	0.000	
117	   N	33.833	42.859	25.166	N.am	16	GLY110	0.000	
118	  CA	34.103	42.683	26.586	C.3	16	GLY110	0.000	
119	   C	32.945	42.212	27.453	C.2	16	GLY110	0.000	
120	   O	33.108	42.015	28.648	O.2	16	GLY110	0.000	
121	   N	31.775	42.042	26.858	N.am	17	ALA111	0.000	
122	  CA	30.642	41.441	27.537	C.3	17	ALA111	0.000	
123	   C	29.760	40.728	26.522	C.2	17	ALA111	0.000	
124	   O	29.978	40.846	25.318	O.2	17	ALA111	0.000	
125	  CB	29.848	42.495	28.259	C.3	17	ALA111	0.000	
126	   N	28.776	39.987	27.023	N.am	18	ASP112	0.000	
127	  CA	27.745	39.401	26.185	C.3	18	ASP112	0.000	
128	   C	26.369	39.665	26.777	C.2	18	ASP112	0.000	
129	   O	26.259	40.236	27.873	O.2	18	ASP112	0.000	
130	  CB	27.995	37.901	25.940	C.3	18	ASP112	0.000	
131	  CG	27.888	37.059	27.199	C.2	18	ASP112	0.000	
132	 OD1	27.080	37.364	28.095	O.co2	18	ASP112	0.000	
133	 OD2	28.619	36.062	27.285	O.co2	18	ASP112	0.000	
134	   N	25.643	38.580	30.256	N.am	19	ASN115	0.000	
135	  CA	26.272	39.514	31.194	C.3	19	ASN115	0.000	
136	   C	25.456	40.805	31.406	C.2	19	ASN115	0.000	
137	   O	25.785	41.606	32.290	O.2	19	ASN115	0.000	
138	  CB	27.696	39.889	30.725	C.3	19	ASN115	0.000	
139	  CG	28.603	38.670	30.466	C.2	19	ASN115	0.000	
140	 ND2	29.770	38.897	29.864	N.pl3	19	ASN115	0.000	
141	 OD1	28.245	37.538	30.810	O.2	19	ASN115	0.000	
142	   N	24.849	34.392	24.606	N.am	20	SER154	0.000	
143	  CA	26.299	34.284	24.709	C.3	20	SER154	0.000	
144	   C	27.049	34.492	23.385	C.2	20	SER154	0.000	
145	   O	28.266	34.629	23.415	O.2	20	SER154	0.000	
146	  CB	26.696	32.941	25.318	C.3	20	SER154	0.000	
147	  OG	26.433	31.901	24.404	O.3	20	SER154	0.000	
148	   N	27.798	39.841	21.504	N.am	21	ALA157	0.000	
149	  CA	28.801	40.627	22.230	C.3	21	ALA157	0.000	
150	   C	28.314	42.068	22.365	C.2	21	ALA157	0.000	
151	   O	27.799	42.634	21.411	O.2	21	ALA157	0.000	
152	  CB	30.144	40.581	21.483	C.3	21	ALA157	0.000	
153	   N	28.441	37.275	17.125	N.am	22	LEU167	0.000	
154	  CA	29.594	36.376	17.051	C.3	22	LEU167	0.000	
155	   C	29.153	34.972	16.586	C.2	22	LEU167	0.000	
156	   O	27.995	34.593	16.739	O.2	22	LEU167	0.000	
157	  CB	30.255	36.191	18.422	C.3	22	LEU167	0.000	
158	  CG	30.500	37.202	19.536	C.3	22	LEU167	0.000	
159	 CD1	31.538	36.653	20.498	C.3	22	LEU167	0.000	
160	 CD2	30.930	38.531	19.041	C.3	22	LEU167	0.000	
@<TRIPOS>BOND
1 1 2 1
2 2 3 1
3 2 5 1
4 3 4 2
5 5 6 1
6 5 7 1
7 8 9 1
8 9 10 1
9 9 12 1
10 10 11 2
11 12 13 1
12 12 14 1
13 15 16 1
14 16 17 1
15 16 19 1
16 17 18 2
17 17 20 1
18 20 21 1
19 21 22 1
20 21 24 1
21 22 23 2
22 22 27 1
23 24 25 1
24 24 26 1
25 27 28 1
26 28 29 1
27 28 31 1
28 29 30 2
29 31 32 1
30 32 33 1
31 33 34 1
32 34 35 1
33 36 37 1
34 37 38 1
35 37 40 1
36 38 39 2
37 40 41 1
38 41 42 1
39 42 43 2
40 42 44 1
41 45 46 1
42 46 47 1
43 46 49 1
44 47 48 2
45 49 50 1
46 50 51 1
47 50 52 1
48 53 54 1
49 54 55 1
50 54 57 1
51 55 56 2
52 57 58 1
53 57 59 1
54 58 60 1
55 61 62 1
56 62 63 1
57 62 65 1
58 63 64 2
59 65 66 1
60 66 67 1
61 66 68 1
62 69 70 1
63 70 71 1
64 70 73 1
65 71 72 2
66 71 77 1
67 73 74 1
68 74 75 1
69 74 76 1
70 77 78 1
71 78 79 1
72 78 81 1
73 79 80 2
74 79 84 1
75 81 82 1
76 81 83 1
77 84 85 1
78 85 86 1
79 85 88 1
80 86 87 2
81 86 91 1
82 88 89 1
83 88 90 1
84 91 92 1
85 92 93 1
86 92 95 1
87 93 94 2
88 93 101 1
89 95 96 1
90 96 97 2
91 96 98 1
92 97 100 1
93 98 99 2
94 99 100 1
95 101 102 1
96 102 103 1
97 102 105 1
98 103 104 2
99 103 109 1
100 105 106 1
101 106 107 1
102 106 108 1
103 109 110 1
104 110 111 1
105 110 113 1
106 111 112 2
107 111 117 1
108 113 114 1
109 114 115 1
110 115 116 1
111 117 118 1
112 118 119 1
113 119 120 2
114 119 121 1
115 121 122 1
116 122 123 1
117 122 125 1
118 123 124 2
119 123 126 1
120 126 127 1
121 127 128 1
122 127 130 1
123 128 129 2
124 130 131 1
125 131 132 2
126 131 133 1
127 134 135 1
128 135 136 1
129 135 138 1
130 136 137 2
131 138 139 1
132 139 140 1
133 139 141 2
134 142 143 1
135 143 144 1
136 143 146 1
137 144 145 2
138 146 147 1
139 148 149 1
140 149 150 1
141 149 152 1
142 150 151 2
143 153 154 1
144 154 155 1
145 154 157 1
146 155 156 2
147 157 158 1
148 158 159 1
149 158 160 1
@<TRIPOS>SUBSTRUCTURE
1	VAL30	1	RESIDUE	1 B	VAL
2	VAL38	8	RESIDUE	1 B	VAL
3	ALA51	15	RESIDUE	1 B	ALA
4	VAL52	20	RESIDUE	1 B	VAL
5	LYS53	27	RESIDUE	1 B	LYS
6	GLU71	36	RESIDUE	1 B	GLU
7	LEU75	45	RESIDUE	1 B	LEU
8	ILE84	53	RESIDUE	1 B	ILE
9	LEU86	61	RESIDUE	1 B	LEU
10	LEU104	69	RESIDUE	1 B	LEU
11	VAL105	77	RESIDUE	1 B	VAL
12	THR106	84	RESIDUE	1 B	THR
13	HIE107	91	RESIDUE	1 B	HIE
14	LEU108	101	RESIDUE	1 B	LEU
15	MET109	109	RESIDUE	1 B	MET
16	GLY110	117	RESIDUE	1 B	GLY
17	ALA111	121	RESIDUE	1 B	ALA
18	ASP112	126	RESIDUE	1 B	ASP
19	ASN115	134	RESIDUE	1 B	ASN
20	SER154	142	RESIDUE	1 B	SER
21	ALA157	148	RESIDUE	1 B	ALA
22	LEU167	153	RESIDUE	1 B	LEU
