# created with PyMOL 2.5.2
@<TRIPOS>MOLECULE
SIRT2_4R8M_TargetProtein
9 8 1                   
SMALL
USER_CHARGES
@<TRIPOS>ATOM
1	   N	54.032	-3.895	110.031	N.am	1	LYS3	0.000	
2	  CA	52.813	-3.158	110.392	C.3	1	LYS3	0.000	
3	   C	52.444	-3.379	111.842	C.2	1	LYS3	0.000	
4	   O	52.153	-4.493	112.236	O.2	1	LYS3	0.000	
5	  CB	51.675	-3.558	109.456	C.3	1	LYS3	0.000	
6	  CG	50.454	-2.658	109.638	C.3	1	LYS3	0.000	
7	  CD	49.318	-3.111	108.737	C.3	1	LYS3	0.000	
8	  CE	48.030	-2.340	109.022	C.3	1	LYS3	0.000	
9	  NZ	46.942	-2.837	108.209	N.4	1	LYS3	0.000	
@<TRIPOS>BOND
1 1 2 1
2 2 3 1
3 2 5 1
4 3 4 2
5 5 6 1
6 6 7 1
7 7 8 1
8 8 9 1
@<TRIPOS>SUBSTRUCTURE
1	LYS3	1	RESIDUE	1 B	LYS
