# created with PyMOL 2.5.2
@<TRIPOS>MOLECULE
GSK_4PTC_TargetProtein
162 155 20              
SMALL
USER_CHARGES
@<TRIPOS>ATOM
1	   N	2.102	1.009	-30.054	N.am	1	ILE62	0.000	
2	  CA	1.146	1.892	-30.709	C.3	1	ILE62	0.000	
3	   C	-0.192	1.912	-29.963	C.2	1	ILE62	0.000	
4	   O	-0.915	2.906	-29.985	O.2	1	ILE62	0.000	
5	  CB	0.899	1.461	-32.197	C.3	1	ILE62	0.000	
6	 CG1	1.900	2.136	-33.137	C.3	1	ILE62	0.000	
7	 CG2	-0.549	1.730	-32.613	C.3	1	ILE62	0.000	
8	 CD1	1.648	3.643	-33.215	C.3	1	ILE62	0.000	
9	   N	-0.531	0.811	-29.304	N.am	2	GLY63	0.000	
10	  CA	-1.816	0.734	-28.638	C.3	2	GLY63	0.000	
11	   C	-1.985	-0.469	-27.738	C.2	2	GLY63	0.000	
12	   O	-1.262	-1.452	-27.856	O.2	2	GLY63	0.000	
13	   N	-8.092	-6.941	-26.131	N.am	3	PHE67	0.000	
14	  CA	-7.480	-8.070	-26.815	C.3	3	PHE67	0.000	
15	   C	-6.054	-8.373	-26.347	C.2	3	PHE67	0.000	
16	   O	-5.664	-9.544	-26.214	O.2	3	PHE67	0.000	
17	  CB	-7.468	-7.792	-28.314	C.3	3	PHE67	0.000	
18	  CG	-6.879	-6.459	-28.669	C.2	3	PHE67	0.000	
19	 CD1	-7.681	-5.331	-28.746	C.2	3	PHE67	0.000	
20	 CD2	-5.525	-6.328	-28.923	C.2	3	PHE67	0.000	
21	 CE1	-7.143	-4.092	-29.075	C.2	3	PHE67	0.000	
22	 CE2	-4.982	-5.092	-29.246	C.2	3	PHE67	0.000	
23	  CZ	-5.795	-3.974	-29.326	C.2	3	PHE67	0.000	
24	   N	-0.758	-3.699	-29.149	N.am	4	VAL70	0.000	
25	  CA	-0.423	-3.479	-30.555	C.3	4	VAL70	0.000	
26	   C	0.906	-2.744	-30.697	C.2	4	VAL70	0.000	
27	   O	1.010	-1.565	-30.385	O.2	4	VAL70	0.000	
28	  CB	-1.501	-2.658	-31.290	C.3	4	VAL70	0.000	
29	 CG1	-1.073	-2.399	-32.714	C.3	4	VAL70	0.000	
30	 CG2	-2.822	-3.374	-31.285	C.3	4	VAL70	0.000	
31	   N	2.265	-2.782	-38.152	N.am	5	ALA83	0.000	
32	  CA	1.620	-2.865	-36.864	C.3	5	ALA83	0.000	
33	   C	1.406	-4.335	-36.486	C.2	5	ALA83	0.000	
34	   O	0.574	-5.018	-37.074	O.2	5	ALA83	0.000	
35	  CB	0.303	-2.119	-36.885	C.3	5	ALA83	0.000	
36	   N	0.013	-7.010	-33.818	N.am	6	LYS85	0.000	
37	  CA	-1.016	-7.054	-32.771	C.3	6	LYS85	0.000	
38	   C	-1.015	-8.392	-32.032	C.2	6	LYS85	0.000	
39	   O	-1.337	-9.409	-32.640	O.2	6	LYS85	0.000	
40	  CB	-2.386	-6.798	-33.395	C.3	6	LYS85	0.000	
41	  CG	-3.592	-7.234	-32.570	C.3	6	LYS85	0.000	
42	  CD	-4.871	-7.063	-33.405	C.3	6	LYS85	0.000	
43	  CE	-6.120	-7.299	-32.588	C.3	6	LYS85	0.000	
44	  NZ	-7.358	-7.127	-33.382	N.4	6	LYS85	0.000	
45	   N	-10.743	-14.245	-35.919	N.am	7	GLU97	0.000	
46	  CA	-10.177	-13.072	-36.574	C.3	7	GLU97	0.000	
47	   C	-9.194	-13.447	-37.698	C.2	7	GLU97	0.000	
48	   O	-9.314	-12.966	-38.816	O.2	7	GLU97	0.000	
49	  CB	-9.473	-12.187	-35.557	C.3	7	GLU97	0.000	
50	  CG	-9.125	-10.821	-36.086	C.3	7	GLU97	0.000	
51	  CD	-8.580	-9.887	-35.020	C.2	7	GLU97	0.000	
52	 OE1	-8.763	-10.170	-33.815	O.co2	7	GLU97	0.000	
53	 OE2	-7.966	-8.863	-35.398	O.co2	7	GLU97	0.000	
54	   N	-7.368	-3.294	-43.909	N.am	8	VAL110	0.000	
55	  CA	-5.958	-3.384	-43.525	C.3	8	VAL110	0.000	
56	   C	-5.452	-4.761	-43.944	C.2	8	VAL110	0.000	
57	   O	-6.131	-5.769	-43.787	O.2	8	VAL110	0.000	
58	  CB	-5.711	-3.153	-41.989	C.3	8	VAL110	0.000	
59	 CG1	-6.295	-4.299	-41.161	C.3	8	VAL110	0.000	
60	 CG2	-4.221	-2.968	-41.695	C.3	8	VAL110	0.000	
61	   N	0.254	-6.570	-39.255	N.am	9	LEU132	0.000	
62	  CA	-0.510	-5.745	-40.181	C.3	9	LEU132	0.000	
63	   C	0.323	-4.648	-40.814	C.2	9	LEU132	0.000	
64	   O	1.279	-4.165	-40.206	O.2	9	LEU132	0.000	
65	  CB	-1.694	-5.110	-39.468	C.3	9	LEU132	0.000	
66	  CG	-2.677	-6.101	-38.873	C.3	9	LEU132	0.000	
67	 CD1	-3.687	-5.349	-38.061	C.3	9	LEU132	0.000	
68	 CD2	-3.348	-6.893	-39.992	C.3	9	LEU132	0.000	
69	   N	-0.049	-4.260	-42.035	N.am	10	ASP133	0.000	
70	  CA	0.449	-3.019	-42.642	C.3	10	ASP133	0.000	
71	   C	0.124	-1.819	-41.763	C.2	10	ASP133	0.000	
72	   O	-1.031	-1.595	-41.417	O.2	10	ASP133	0.000	
73	  CB	-0.163	-2.794	-44.021	C.3	10	ASP133	0.000	
74	  CG	0.624	-3.463	-45.133	C.2	10	ASP133	0.000	
75	 OD1	1.871	-3.577	-45.014	O.co2	10	ASP133	0.000	
76	 OD2	-0.023	-3.870	-46.124	O.co2	10	ASP133	0.000	
77	   N	1.137	-1.046	-41.399	N.am	11	TYR134	0.000	
78	  CA	0.915	0.136	-40.574	C.3	11	TYR134	0.000	
79	   C	0.389	1.296	-41.426	C.2	11	TYR134	0.000	
80	   O	0.940	1.581	-42.491	O.2	11	TYR134	0.000	
81	  CB	2.218	0.526	-39.862	C.3	11	TYR134	0.000	
82	  CG	2.169	1.831	-39.108	C.2	11	TYR134	0.000	
83	 CD1	2.467	3.027	-39.739	C.2	11	TYR134	0.000	
84	 CD2	1.836	1.868	-37.754	C.2	11	TYR134	0.000	
85	 CE1	2.421	4.223	-39.054	C.2	11	TYR134	0.000	
86	 CE2	1.784	3.063	-37.059	C.2	11	TYR134	0.000	
87	  CZ	2.084	4.239	-37.714	C.2	11	TYR134	0.000	
88	  OH	2.047	5.444	-37.038	O.3	11	TYR134	0.000	
89	   N	-0.683	1.946	-40.976	N.am	12	VAL135	0.000	
90	  CA	-1.118	3.202	-41.593	C.3	12	VAL135	0.000	
91	   C	-0.983	4.330	-40.542	C.2	12	VAL135	0.000	
92	   O	-1.265	4.131	-39.365	O.2	12	VAL135	0.000	
93	  CB	-2.569	3.124	-42.153	C.3	12	VAL135	0.000	
94	 CG1	-2.927	4.394	-42.927	C.3	12	VAL135	0.000	
95	 CG2	-2.754	1.880	-43.024	C.3	12	VAL135	0.000	
96	   N	-0.511	5.507	-40.975	N.am	13	PRO136	0.000	
97	  CA	-0.068	6.616	-40.130	C.3	13	PRO136	0.000	
98	   C	-1.129	7.283	-39.271	C.2	13	PRO136	0.000	
99	   O	-0.822	7.655	-38.136	O.2	13	PRO136	0.000	
100	  CB	0.477	7.623	-41.153	C.3	13	PRO136	0.000	
101	  CG	0.898	6.810	-42.263	C.3	13	PRO136	0.000	
102	  CD	-0.140	5.738	-42.378	C.3	13	PRO136	0.000	
103	   N	-2.334	7.457	-39.794	N.am	14	GLU137	0.000	
104	  CA	-3.352	8.221	-39.084	C.3	14	GLU137	0.000	
105	   C	-4.670	7.448	-38.960	C.2	14	GLU137	0.000	
106	   O	-4.770	6.306	-39.372	O.2	14	GLU137	0.000	
107	  CB	-3.574	9.573	-39.777	C.3	14	GLU137	0.000	
108	  CG	-3.353	10.732	-38.802	C.3	14	GLU137	0.000	
109	  CD	-1.911	10.750	-38.291	C.2	14	GLU137	0.000	
110	 OE1	-1.011	10.935	-39.139	O.co2	14	GLU137	0.000	
111	 OE2	-1.741	10.579	-37.065	O.co2	14	GLU137	0.000	
112	   N	-5.670	8.061	-38.342	N.am	15	THR138	0.000	
113	  CA	-6.968	7.417	-38.168	C.3	15	THR138	0.000	
114	   C	-8.035	8.488	-38.251	C.2	15	THR138	0.000	
115	   O	-7.751	9.674	-38.117	O.2	15	THR138	0.000	
116	  CB	-7.127	6.646	-36.808	C.3	15	THR138	0.000	
117	 CG2	-6.045	5.610	-36.610	C.3	15	THR138	0.000	
118	 OG1	-7.119	7.563	-35.708	O.3	15	THR138	0.000	
119	   N	-8.190	10.281	-34.763	N.am	16	ARG141	0.000	
120	  CA	-7.130	11.278	-34.593	C.3	16	ARG141	0.000	
121	   C	-7.334	12.505	-35.490	C.2	16	ARG141	0.000	
122	   O	-7.091	13.634	-35.063	O.2	16	ARG141	0.000	
123	  CB	-5.756	10.675	-34.895	C.3	16	ARG141	0.000	
124	  CG	-5.294	9.584	-33.972	C.3	16	ARG141	0.000	
125	  CD	-3.923	9.005	-34.398	C.3	16	ARG141	0.000	
126	  NE	-2.780	9.816	-33.962	N.pl3	16	ARG141	0.000	
127	  CZ	-1.507	9.436	-34.048	C.cat	16	ARG141	0.000	
128	 NH1	-1.187	8.240	-34.560	N.pl3	16	ARG141	0.000	
129	 NH2	-0.550	10.268	-33.615	N.pl3	16	ARG141	0.000	
130	   N	-8.563	3.365	-40.443	N.am	17	LEU188	0.000	
131	  CA	-7.177	3.776	-40.646	C.3	17	LEU188	0.000	
132	   C	-7.096	4.673	-41.884	C.2	17	LEU188	0.000	
133	   O	-7.889	4.525	-42.806	O.2	17	LEU188	0.000	
134	  CB	-6.253	2.542	-40.754	C.3	17	LEU188	0.000	
135	  CG	-6.072	1.650	-39.496	C.3	17	LEU188	0.000	
136	 CD1	-5.137	0.474	-39.787	C.3	17	LEU188	0.000	
137	 CD2	-5.596	2.478	-38.301	C.3	17	LEU188	0.000	
138	   N	-10.120	-1.706	-40.126	N.am	18	CYS199	0.000	
139	  CA	-9.352	-2.682	-39.360	C.3	18	CYS199	0.000	
140	   C	-10.076	-3.150	-38.095	C.2	18	CYS199	0.000	
141	   O	-11.243	-2.796	-37.864	O.2	18	CYS199	0.000	
142	  CB	-7.990	-2.111	-38.984	C.3	18	CYS199	0.000	
143	  SG	-8.049	-0.975	-37.618	S.3	18	CYS199	0.000	
144	   N	-9.363	-3.950	-37.296	N.am	19	ASP200	0.000	
145	  CA	-9.878	-4.551	-36.065	C.3	19	ASP200	0.000	
146	   C	-11.032	-5.496	-36.344	C.2	19	ASP200	0.000	
147	   O	-12.195	-5.137	-36.180	O.2	19	ASP200	0.000	
148	  CB	-10.326	-3.481	-35.066	C.3	19	ASP200	0.000	
149	  CG	-10.423	-4.014	-33.647	C.2	19	ASP200	0.000	
150	 OD1	-10.274	-5.240	-33.454	O.co2	19	ASP200	0.000	
151	 OD2	-10.650	-3.205	-32.717	O.co2	19	ASP200	0.000	
152	   N	-10.722	-6.723	-36.736	N.am	20	PHE201	0.000	
153	  CA	-11.798	-7.655	-37.017	C.3	20	PHE201	0.000	
154	   C	-12.021	-8.599	-35.867	C.2	20	PHE201	0.000	
155	   O	-12.550	-9.701	-36.050	O.2	20	PHE201	0.000	
156	  CB	-11.520	-8.403	-38.319	C.3	20	PHE201	0.000	
157	  CG	-11.769	-7.562	-39.521	C.2	20	PHE201	0.000	
158	 CD1	-10.832	-6.623	-39.928	C.2	20	PHE201	0.000	
159	 CD2	-12.972	-7.647	-40.202	C.2	20	PHE201	0.000	
160	 CE1	-11.079	-5.825	-40.996	C.2	20	PHE201	0.000	
161	 CE2	-13.214	-6.841	-41.296	C.2	20	PHE201	0.000	
162	  CZ	-12.271	-5.931	-41.679	C.2	20	PHE201	0.000	
@<TRIPOS>BOND
1 1 2 1
2 2 3 1
3 2 5 1
4 3 4 2
5 3 9 1
6 5 6 1
7 5 7 1
8 6 8 1
9 9 10 1
10 10 11 1
11 11 12 2
12 13 14 1
13 14 15 1
14 14 17 1
15 15 16 2
16 17 18 1
17 18 19 2
18 18 20 1
19 19 21 1
20 20 22 2
21 21 23 2
22 22 23 1
23 24 25 1
24 25 26 1
25 25 28 1
26 26 27 2
27 28 29 1
28 28 30 1
29 31 32 1
30 32 33 1
31 32 35 1
32 33 34 2
33 36 37 1
34 37 38 1
35 37 40 1
36 38 39 2
37 40 41 1
38 41 42 1
39 42 43 1
40 43 44 1
41 45 46 1
42 46 47 1
43 46 49 1
44 47 48 2
45 49 50 1
46 50 51 1
47 51 52 2
48 51 53 1
49 54 55 1
50 55 56 1
51 55 58 1
52 56 57 2
53 58 59 1
54 58 60 1
55 61 62 1
56 62 63 1
57 62 65 1
58 63 64 2
59 63 69 1
60 65 66 1
61 66 67 1
62 66 68 1
63 69 70 1
64 70 71 1
65 70 73 1
66 71 72 2
67 71 77 1
68 73 74 1
69 74 75 2
70 74 76 1
71 77 78 1
72 78 79 1
73 78 81 1
74 79 80 2
75 79 89 1
76 81 82 1
77 82 83 2
78 82 84 1
79 83 85 1
80 84 86 2
81 85 87 2
82 86 87 1
83 87 88 1
84 89 90 1
85 90 91 1
86 90 93 1
87 91 92 2
88 91 96 1
89 93 94 1
90 93 95 1
91 96 97 1
92 96 102 1
93 97 98 1
94 97 100 1
95 98 99 2
96 98 103 1
97 100 101 1
98 101 102 1
99 103 104 1
100 104 105 1
101 104 107 1
102 105 106 2
103 105 112 1
104 107 108 1
105 108 109 1
106 109 110 2
107 109 111 1
108 112 113 1
109 113 114 1
110 113 116 1
111 114 115 2
112 116 117 1
113 116 118 1
114 119 120 1
115 120 121 1
116 120 123 1
117 121 122 2
118 123 124 1
119 124 125 1
120 125 126 1
121 126 127 1
122 127 128 2
123 127 129 1
124 130 131 1
125 131 132 1
126 131 134 1
127 132 133 2
128 134 135 1
129 135 136 1
130 135 137 1
131 138 139 1
132 139 140 1
133 139 142 1
134 140 141 2
135 140 144 1
136 142 143 1
137 144 145 1
138 145 146 1
139 145 148 1
140 146 147 2
141 146 152 1
142 148 149 1
143 149 150 2
144 149 151 1
145 152 153 1
146 153 154 1
147 153 156 1
148 154 155 2
149 156 157 1
150 157 158 2
151 157 159 1
152 158 160 1
153 159 161 2
154 160 162 2
155 161 162 1
@<TRIPOS>SUBSTRUCTURE
1	ILE62	1	RESIDUE	1 B	ILE
2	GLY63	9	RESIDUE	1 B	GLY
3	PHE67	13	RESIDUE	1 B	PHE
4	VAL70	24	RESIDUE	1 B	VAL
5	ALA83	31	RESIDUE	1 B	ALA
6	LYS85	36	RESIDUE	1 B	LYS
7	GLU97	45	RESIDUE	1 B	GLU
8	VAL110	54	RESIDUE	1 B	VAL
9	LEU132	61	RESIDUE	1 B	LEU
10	ASP133	69	RESIDUE	1 B	ASP
11	TYR134	77	RESIDUE	1 B	TYR
12	VAL135	89	RESIDUE	1 B	VAL
13	PRO136	96	RESIDUE	1 B	PRO
14	GLU137	103	RESIDUE	1 B	GLU
15	THR138	112	RESIDUE	1 B	THR
16	ARG141	119	RESIDUE	1 B	ARG
17	LEU188	130	RESIDUE	1 B	LEU
18	CYS199	138	RESIDUE	1 B	CYS
19	ASP200	144	RESIDUE	1 B	ASP
20	PHE201	152	RESIDUE	1 B	PHE
