# created with PyMOL 2.5.2
@<TRIPOS>MOLECULE
GSK_4PTC_TargetProtein
158 151 19              
SMALL
USER_CHARGES
@<TRIPOS>ATOM
1	   N	2.102	1.009	-30.054	N.am	1	ILE62	0.000	
2	  CA	1.146	1.892	-30.709	C.3	1	ILE62	0.000	
3	   C	-0.192	1.912	-29.963	C.2	1	ILE62	0.000	
4	   O	-0.915	2.906	-29.985	O.2	1	ILE62	0.000	
5	  CB	0.899	1.461	-32.197	C.3	1	ILE62	0.000	
6	 CG1	1.900	2.136	-33.137	C.3	1	ILE62	0.000	
7	 CG2	-0.549	1.730	-32.613	C.3	1	ILE62	0.000	
8	 CD1	1.648	3.643	-33.215	C.3	1	ILE62	0.000	
9	   N	-8.092	-6.941	-26.131	N.am	2	PHE67	0.000	
10	  CA	-7.480	-8.070	-26.815	C.3	2	PHE67	0.000	
11	   C	-6.054	-8.373	-26.347	C.2	2	PHE67	0.000	
12	   O	-5.664	-9.544	-26.214	O.2	2	PHE67	0.000	
13	  CB	-7.468	-7.792	-28.314	C.3	2	PHE67	0.000	
14	  CG	-6.879	-6.459	-28.669	C.2	2	PHE67	0.000	
15	 CD1	-7.681	-5.331	-28.746	C.2	2	PHE67	0.000	
16	 CD2	-5.525	-6.328	-28.923	C.2	2	PHE67	0.000	
17	 CE1	-7.143	-4.092	-29.075	C.2	2	PHE67	0.000	
18	 CE2	-4.982	-5.092	-29.246	C.2	2	PHE67	0.000	
19	  CZ	-5.795	-3.974	-29.326	C.2	2	PHE67	0.000	
20	   N	-0.758	-3.699	-29.149	N.am	3	VAL70	0.000	
21	  CA	-0.423	-3.479	-30.555	C.3	3	VAL70	0.000	
22	   C	0.906	-2.744	-30.697	C.2	3	VAL70	0.000	
23	   O	1.010	-1.565	-30.385	O.2	3	VAL70	0.000	
24	  CB	-1.501	-2.658	-31.290	C.3	3	VAL70	0.000	
25	 CG1	-1.073	-2.399	-32.714	C.3	3	VAL70	0.000	
26	 CG2	-2.822	-3.374	-31.285	C.3	3	VAL70	0.000	
27	   N	2.265	-2.782	-38.152	N.am	4	ALA83	0.000	
28	  CA	1.620	-2.865	-36.864	C.3	4	ALA83	0.000	
29	   C	1.406	-4.335	-36.486	C.2	4	ALA83	0.000	
30	   O	0.574	-5.018	-37.074	O.2	4	ALA83	0.000	
31	  CB	0.303	-2.119	-36.885	C.3	4	ALA83	0.000	
32	   N	0.013	-7.010	-33.818	N.am	5	LYS85	0.000	
33	  CA	-1.016	-7.054	-32.771	C.3	5	LYS85	0.000	
34	   C	-1.015	-8.392	-32.032	C.2	5	LYS85	0.000	
35	   O	-1.337	-9.409	-32.640	O.2	5	LYS85	0.000	
36	  CB	-2.386	-6.798	-33.395	C.3	5	LYS85	0.000	
37	  CG	-3.592	-7.234	-32.570	C.3	5	LYS85	0.000	
38	  CD	-4.871	-7.063	-33.405	C.3	5	LYS85	0.000	
39	  CE	-6.120	-7.299	-32.588	C.3	5	LYS85	0.000	
40	  NZ	-7.358	-7.127	-33.382	N.4	5	LYS85	0.000	
41	   N	-10.743	-14.245	-35.919	N.am	6	GLU97	0.000	
42	  CA	-10.177	-13.072	-36.574	C.3	6	GLU97	0.000	
43	   C	-9.194	-13.447	-37.698	C.2	6	GLU97	0.000	
44	   O	-9.314	-12.966	-38.816	O.2	6	GLU97	0.000	
45	  CB	-9.473	-12.187	-35.557	C.3	6	GLU97	0.000	
46	  CG	-9.125	-10.821	-36.086	C.3	6	GLU97	0.000	
47	  CD	-8.580	-9.887	-35.020	C.2	6	GLU97	0.000	
48	 OE1	-8.763	-10.170	-33.815	O.co2	6	GLU97	0.000	
49	 OE2	-7.966	-8.863	-35.398	O.co2	6	GLU97	0.000	
50	   N	-7.368	-3.294	-43.909	N.am	7	VAL110	0.000	
51	  CA	-5.958	-3.384	-43.525	C.3	7	VAL110	0.000	
52	   C	-5.452	-4.761	-43.944	C.2	7	VAL110	0.000	
53	   O	-6.131	-5.769	-43.787	O.2	7	VAL110	0.000	
54	  CB	-5.711	-3.153	-41.989	C.3	7	VAL110	0.000	
55	 CG1	-6.295	-4.299	-41.161	C.3	7	VAL110	0.000	
56	 CG2	-4.221	-2.968	-41.695	C.3	7	VAL110	0.000	
57	   N	0.254	-6.570	-39.255	N.am	8	LEU132	0.000	
58	  CA	-0.510	-5.745	-40.181	C.3	8	LEU132	0.000	
59	   C	0.323	-4.648	-40.814	C.2	8	LEU132	0.000	
60	   O	1.279	-4.165	-40.206	O.2	8	LEU132	0.000	
61	  CB	-1.694	-5.110	-39.468	C.3	8	LEU132	0.000	
62	  CG	-2.677	-6.101	-38.873	C.3	8	LEU132	0.000	
63	 CD1	-3.687	-5.349	-38.061	C.3	8	LEU132	0.000	
64	 CD2	-3.348	-6.893	-39.992	C.3	8	LEU132	0.000	
65	   N	-0.049	-4.260	-42.035	N.am	9	ASP133	0.000	
66	  CA	0.449	-3.019	-42.642	C.3	9	ASP133	0.000	
67	   C	0.124	-1.819	-41.763	C.2	9	ASP133	0.000	
68	   O	-1.031	-1.595	-41.417	O.2	9	ASP133	0.000	
69	  CB	-0.163	-2.794	-44.021	C.3	9	ASP133	0.000	
70	  CG	0.624	-3.463	-45.133	C.2	9	ASP133	0.000	
71	 OD1	1.871	-3.577	-45.014	O.co2	9	ASP133	0.000	
72	 OD2	-0.023	-3.870	-46.124	O.co2	9	ASP133	0.000	
73	   N	1.137	-1.046	-41.399	N.am	10	TYR134	0.000	
74	  CA	0.915	0.136	-40.574	C.3	10	TYR134	0.000	
75	   C	0.389	1.296	-41.426	C.2	10	TYR134	0.000	
76	   O	0.940	1.581	-42.491	O.2	10	TYR134	0.000	
77	  CB	2.218	0.526	-39.862	C.3	10	TYR134	0.000	
78	  CG	2.169	1.831	-39.108	C.2	10	TYR134	0.000	
79	 CD1	2.467	3.027	-39.739	C.2	10	TYR134	0.000	
80	 CD2	1.836	1.868	-37.754	C.2	10	TYR134	0.000	
81	 CE1	2.421	4.223	-39.054	C.2	10	TYR134	0.000	
82	 CE2	1.784	3.063	-37.059	C.2	10	TYR134	0.000	
83	  CZ	2.084	4.239	-37.714	C.2	10	TYR134	0.000	
84	  OH	2.047	5.444	-37.038	O.3	10	TYR134	0.000	
85	   N	-0.683	1.946	-40.976	N.am	11	VAL135	0.000	
86	  CA	-1.118	3.202	-41.593	C.3	11	VAL135	0.000	
87	   C	-0.983	4.330	-40.542	C.2	11	VAL135	0.000	
88	   O	-1.265	4.131	-39.365	O.2	11	VAL135	0.000	
89	  CB	-2.569	3.124	-42.153	C.3	11	VAL135	0.000	
90	 CG1	-2.927	4.394	-42.927	C.3	11	VAL135	0.000	
91	 CG2	-2.754	1.880	-43.024	C.3	11	VAL135	0.000	
92	   N	-0.511	5.507	-40.975	N.am	12	PRO136	0.000	
93	  CA	-0.068	6.616	-40.130	C.3	12	PRO136	0.000	
94	   C	-1.129	7.283	-39.271	C.2	12	PRO136	0.000	
95	   O	-0.822	7.655	-38.136	O.2	12	PRO136	0.000	
96	  CB	0.477	7.623	-41.153	C.3	12	PRO136	0.000	
97	  CG	0.898	6.810	-42.263	C.3	12	PRO136	0.000	
98	  CD	-0.140	5.738	-42.378	C.3	12	PRO136	0.000	
99	   N	-2.334	7.457	-39.794	N.am	13	GLU137	0.000	
100	  CA	-3.352	8.221	-39.084	C.3	13	GLU137	0.000	
101	   C	-4.670	7.448	-38.960	C.2	13	GLU137	0.000	
102	   O	-4.770	6.306	-39.372	O.2	13	GLU137	0.000	
103	  CB	-3.574	9.573	-39.777	C.3	13	GLU137	0.000	
104	  CG	-3.353	10.732	-38.802	C.3	13	GLU137	0.000	
105	  CD	-1.911	10.750	-38.291	C.2	13	GLU137	0.000	
106	 OE1	-1.011	10.935	-39.139	O.co2	13	GLU137	0.000	
107	 OE2	-1.741	10.579	-37.065	O.co2	13	GLU137	0.000	
108	   N	-5.670	8.061	-38.342	N.am	14	THR138	0.000	
109	  CA	-6.968	7.417	-38.168	C.3	14	THR138	0.000	
110	   C	-8.035	8.488	-38.251	C.2	14	THR138	0.000	
111	   O	-7.751	9.674	-38.117	O.2	14	THR138	0.000	
112	  CB	-7.127	6.646	-36.808	C.3	14	THR138	0.000	
113	 CG2	-6.045	5.610	-36.610	C.3	14	THR138	0.000	
114	 OG1	-7.119	7.563	-35.708	O.3	14	THR138	0.000	
115	   N	-8.190	10.281	-34.763	N.am	15	ARG141	0.000	
116	  CA	-7.130	11.278	-34.593	C.3	15	ARG141	0.000	
117	   C	-7.334	12.505	-35.490	C.2	15	ARG141	0.000	
118	   O	-7.091	13.634	-35.063	O.2	15	ARG141	0.000	
119	  CB	-5.756	10.675	-34.895	C.3	15	ARG141	0.000	
120	  CG	-5.294	9.584	-33.972	C.3	15	ARG141	0.000	
121	  CD	-3.923	9.005	-34.398	C.3	15	ARG141	0.000	
122	  NE	-2.780	9.816	-33.962	N.pl3	15	ARG141	0.000	
123	  CZ	-1.507	9.436	-34.048	C.cat	15	ARG141	0.000	
124	 NH1	-1.187	8.240	-34.560	N.pl3	15	ARG141	0.000	
125	 NH2	-0.550	10.268	-33.615	N.pl3	15	ARG141	0.000	
126	   N	-8.563	3.365	-40.443	N.am	16	LEU188	0.000	
127	  CA	-7.177	3.776	-40.646	C.3	16	LEU188	0.000	
128	   C	-7.096	4.673	-41.884	C.2	16	LEU188	0.000	
129	   O	-7.889	4.525	-42.806	O.2	16	LEU188	0.000	
130	  CB	-6.253	2.542	-40.754	C.3	16	LEU188	0.000	
131	  CG	-6.072	1.650	-39.496	C.3	16	LEU188	0.000	
132	 CD1	-5.137	0.474	-39.787	C.3	16	LEU188	0.000	
133	 CD2	-5.596	2.478	-38.301	C.3	16	LEU188	0.000	
134	   N	-10.120	-1.706	-40.126	N.am	17	CYS199	0.000	
135	  CA	-9.352	-2.682	-39.360	C.3	17	CYS199	0.000	
136	   C	-10.076	-3.150	-38.095	C.2	17	CYS199	0.000	
137	   O	-11.243	-2.796	-37.864	O.2	17	CYS199	0.000	
138	  CB	-7.990	-2.111	-38.984	C.3	17	CYS199	0.000	
139	  SG	-8.049	-0.975	-37.618	S.3	17	CYS199	0.000	
140	   N	-9.363	-3.950	-37.296	N.am	18	ASP200	0.000	
141	  CA	-9.878	-4.551	-36.065	C.3	18	ASP200	0.000	
142	   C	-11.032	-5.496	-36.344	C.2	18	ASP200	0.000	
143	   O	-12.195	-5.137	-36.180	O.2	18	ASP200	0.000	
144	  CB	-10.326	-3.481	-35.066	C.3	18	ASP200	0.000	
145	  CG	-10.423	-4.014	-33.647	C.2	18	ASP200	0.000	
146	 OD1	-10.274	-5.240	-33.454	O.co2	18	ASP200	0.000	
147	 OD2	-10.650	-3.205	-32.717	O.co2	18	ASP200	0.000	
148	   N	-10.722	-6.723	-36.736	N.am	19	PHE201	0.000	
149	  CA	-11.798	-7.655	-37.017	C.3	19	PHE201	0.000	
150	   C	-12.021	-8.599	-35.867	C.2	19	PHE201	0.000	
151	   O	-12.550	-9.701	-36.050	O.2	19	PHE201	0.000	
152	  CB	-11.520	-8.403	-38.319	C.3	19	PHE201	0.000	
153	  CG	-11.769	-7.562	-39.521	C.2	19	PHE201	0.000	
154	 CD1	-10.832	-6.623	-39.928	C.2	19	PHE201	0.000	
155	 CD2	-12.972	-7.647	-40.202	C.2	19	PHE201	0.000	
156	 CE1	-11.079	-5.825	-40.996	C.2	19	PHE201	0.000	
157	 CE2	-13.214	-6.841	-41.296	C.2	19	PHE201	0.000	
158	  CZ	-12.271	-5.931	-41.679	C.2	19	PHE201	0.000	
@<TRIPOS>BOND
1 1 2 1
2 2 3 1
3 2 5 1
4 3 4 2
5 5 6 1
6 5 7 1
7 6 8 1
8 9 10 1
9 10 11 1
10 10 13 1
11 11 12 2
12 13 14 1
13 14 15 2
14 14 16 1
15 15 17 1
16 16 18 2
17 17 19 2
18 18 19 1
19 20 21 1
20 21 22 1
21 21 24 1
22 22 23 2
23 24 25 1
24 24 26 1
25 27 28 1
26 28 29 1
27 28 31 1
28 29 30 2
29 32 33 1
30 33 34 1
31 33 36 1
32 34 35 2
33 36 37 1
34 37 38 1
35 38 39 1
36 39 40 1
37 41 42 1
38 42 43 1
39 42 45 1
40 43 44 2
41 45 46 1
42 46 47 1
43 47 48 2
44 47 49 1
45 50 51 1
46 51 52 1
47 51 54 1
48 52 53 2
49 54 55 1
50 54 56 1
51 57 58 1
52 58 59 1
53 58 61 1
54 59 60 2
55 59 65 1
56 61 62 1
57 62 63 1
58 62 64 1
59 65 66 1
60 66 67 1
61 66 69 1
62 67 68 2
63 67 73 1
64 69 70 1
65 70 71 2
66 70 72 1
67 73 74 1
68 74 75 1
69 74 77 1
70 75 76 2
71 75 85 1
72 77 78 1
73 78 79 2
74 78 80 1
75 79 81 1
76 80 82 2
77 81 83 2
78 82 83 1
79 83 84 1
80 85 86 1
81 86 87 1
82 86 89 1
83 87 88 2
84 87 92 1
85 89 90 1
86 89 91 1
87 92 93 1
88 92 98 1
89 93 94 1
90 93 96 1
91 94 95 2
92 94 99 1
93 96 97 1
94 97 98 1
95 99 100 1
96 100 101 1
97 100 103 1
98 101 102 2
99 101 108 1
100 103 104 1
101 104 105 1
102 105 106 2
103 105 107 1
104 108 109 1
105 109 110 1
106 109 112 1
107 110 111 2
108 112 113 1
109 112 114 1
110 115 116 1
111 116 117 1
112 116 119 1
113 117 118 2
114 119 120 1
115 120 121 1
116 121 122 1
117 122 123 1
118 123 124 2
119 123 125 1
120 126 127 1
121 127 128 1
122 127 130 1
123 128 129 2
124 130 131 1
125 131 132 1
126 131 133 1
127 134 135 1
128 135 136 1
129 135 138 1
130 136 137 2
131 136 140 1
132 138 139 1
133 140 141 1
134 141 142 1
135 141 144 1
136 142 143 2
137 142 148 1
138 144 145 1
139 145 146 2
140 145 147 1
141 148 149 1
142 149 150 1
143 149 152 1
144 150 151 2
145 152 153 1
146 153 154 2
147 153 155 1
148 154 156 1
149 155 157 2
150 156 158 2
151 157 158 1
@<TRIPOS>SUBSTRUCTURE
1	ILE62	1	RESIDUE	1 B	ILE
2	PHE67	9	RESIDUE	1 B	PHE
3	VAL70	20	RESIDUE	1 B	VAL
4	ALA83	27	RESIDUE	1 B	ALA
5	LYS85	32	RESIDUE	1 B	LYS
6	GLU97	41	RESIDUE	1 B	GLU
7	VAL110	50	RESIDUE	1 B	VAL
8	LEU132	57	RESIDUE	1 B	LEU
9	ASP133	65	RESIDUE	1 B	ASP
10	TYR134	73	RESIDUE	1 B	TYR
11	VAL135	85	RESIDUE	1 B	VAL
12	PRO136	92	RESIDUE	1 B	PRO
13	GLU137	99	RESIDUE	1 B	GLU
14	THR138	108	RESIDUE	1 B	THR
15	ARG141	115	RESIDUE	1 B	ARG
16	LEU188	126	RESIDUE	1 B	LEU
17	CYS199	134	RESIDUE	1 B	CYS
18	ASP200	140	RESIDUE	1 B	ASP
19	PHE201	148	RESIDUE	1 B	PHE
