# created with PyMOL 2.5.2
@<TRIPOS>MOLECULE
ALK_4MKC_TargetProtein
165 154 23              
SMALL
USER_CHARGES
@<TRIPOS>ATOM
1	   N	-23.183	10.899	-1.358	N.am	1	LEU1122	0.000	
2	  CA	-22.879	9.921	-2.416	C.3	1	LEU1122	0.000	
3	   C	-21.420	9.495	-2.376	C.2	1	LEU1122	0.000	
4	   O	-20.983	8.661	-3.175	O.2	1	LEU1122	0.000	
5	  CB	-23.180	10.525	-3.802	C.3	1	LEU1122	0.000	
6	  CG	-24.612	10.967	-4.110	C.3	1	LEU1122	0.000	
7	 CD1	-24.670	11.616	-5.489	C.3	1	LEU1122	0.000	
8	 CD2	-25.582	9.798	-4.038	C.3	1	LEU1122	0.000	
9	   N	-20.667	10.112	-1.479	N.am	2	GLY1123	0.000	
10	  CA	-19.237	9.884	-1.372	C.3	2	GLY1123	0.000	
11	   C	-18.471	11.183	-1.463	C.2	2	GLY1123	0.000	
12	   O	-19.064	12.266	-1.423	O.2	2	GLY1123	0.000	
13	   N	-17.144	11.084	-1.599	N.am	3	HIS1124	0.000	
14	  CA	-16.283	12.256	-1.613	C.3	3	HIS1124	0.000	
15	   C	-15.586	12.485	-2.932	C.2	3	HIS1124	0.000	
16	   O	-15.201	11.541	-3.620	O.2	3	HIS1124	0.000	
17	  CB	-15.266	12.189	-0.452	C.3	3	HIS1124	0.000	
18	  CG	-15.922	12.085	0.895	C.2	3	HIS1124	0.000	
19	 CD2	-16.545	11.029	1.476	C.2	3	HIS1124	0.000	
20	 ND1	-16.037	13.184	1.732	N.pl3	3	HIS1124	0.000	
21	 CE1	-16.703	12.760	2.797	C.2	3	HIS1124	0.000	
22	 NE2	-17.035	11.472	2.687	N.pl3	3	HIS1124	0.000	
23	   N	-15.457	13.759	-3.272	N.am	4	GLY1125	0.000	
24	  CA	-14.725	14.230	-4.436	C.3	4	GLY1125	0.000	
25	   C	-13.317	14.570	-3.996	C.2	4	GLY1125	0.000	
26	   O	-12.918	14.200	-2.883	O.2	4	GLY1125	0.000	
27	   N	-12.564	15.300	-4.851	N.am	5	ALA1126	0.000	
28	  CA	-11.174	15.696	-4.612	C.3	5	ALA1126	0.000	
29	   C	-10.989	16.400	-3.273	C.2	5	ALA1126	0.000	
30	   O	-10.084	16.048	-2.507	O.2	5	ALA1126	0.000	
31	  CB	-10.677	16.574	-5.752	C.3	5	ALA1126	0.000	
32	   N	-19.910	14.853	-1.756	N.am	6	VAL1130	0.000	
33	  CA	-20.821	15.056	-2.890	C.3	6	VAL1130	0.000	
34	   C	-22.167	14.530	-2.422	C.2	6	VAL1130	0.000	
35	   O	-22.220	13.466	-1.798	O.2	6	VAL1130	0.000	
36	  CB	-20.386	14.396	-4.227	C.3	6	VAL1130	0.000	
37	 CG1	-21.374	14.736	-5.350	C.3	6	VAL1130	0.000	
38	 CG2	-18.954	14.789	-4.613	C.3	6	VAL1130	0.000	
39	   N	-26.548	13.892	-3.254	N.am	7	GLU1132	0.000	
40	  CA	-27.681	13.858	-4.149	C.3	7	GLU1132	0.000	
41	   C	-28.545	15.054	-3.634	C.2	7	GLU1132	0.000	
42	   O	-28.691	15.247	-2.424	O.2	7	GLU1132	0.000	
43	  CB	-28.476	12.549	-4.027	C.3	7	GLU1132	0.000	
44	  CG	-29.742	12.578	-4.876	C.3	7	GLU1132	0.000	
45	  CD	-30.625	11.348	-4.869	C.2	7	GLU1132	0.000	
46	 OE1	-30.225	10.308	-4.299	O.co2	7	GLU1132	0.000	
47	 OE2	-31.718	11.422	-5.471	O.co2	7	GLU1132	0.000	
48	   N	-26.415	16.496	-8.467	N.am	8	ALA1148	0.000	
49	  CA	-25.288	16.065	-7.671	C.3	8	ALA1148	0.000	
50	   C	-24.739	17.397	-7.144	C.2	8	ALA1148	0.000	
51	   O	-24.565	18.347	-7.911	O.2	8	ALA1148	0.000	
52	  CB	-24.254	15.371	-8.534	C.3	8	ALA1148	0.000	
53	   N	-21.674	19.200	-5.377	N.am	9	LYS1150	0.000	
54	  CA	-20.276	19.173	-4.946	C.3	9	LYS1150	0.000	
55	   C	-20.117	20.316	-3.959	C.2	9	LYS1150	0.000	
56	   O	-20.552	21.428	-4.239	O.2	9	LYS1150	0.000	
57	  CB	-19.304	19.334	-6.134	C.3	9	LYS1150	0.000	
58	  CG	-19.330	18.156	-7.103	C.3	9	LYS1150	0.000	
59	  CD	-18.158	18.199	-8.045	C.3	9	LYS1150	0.000	
60	  CE	-16.924	17.544	-7.483	C.3	9	LYS1150	0.000	
61	  NZ	-15.850	17.523	-8.489	N.4	9	LYS1150	0.000	
62	   N	-24.401	19.777	-10.356	N.am	10	LEU1196	0.000	
63	  CA	-24.189	19.039	-11.595	C.3	10	LEU1196	0.000	
64	   C	-25.319	18.074	-11.869	C.2	10	LEU1196	0.000	
65	   O	-26.087	17.731	-10.968	O.2	10	LEU1196	0.000	
66	  CB	-22.834	18.278	-11.541	C.3	10	LEU1196	0.000	
67	  CG	-21.586	19.130	-11.234	C.3	10	LEU1196	0.000	
68	 CD1	-20.379	18.248	-11.018	C.3	10	LEU1196	0.000	
69	 CD2	-21.291	20.120	-12.365	C.3	10	LEU1196	0.000	
70	   N	-25.397	17.611	-13.114	N.am	11	GLU1197	0.000	
71	  CA	-26.377	16.627	-13.574	C.3	11	GLU1197	0.000	
72	   C	-26.237	15.350	-12.715	C.2	11	GLU1197	0.000	
73	   O	-25.132	14.848	-12.542	O.2	11	GLU1197	0.000	
74	  CB	-26.084	16.335	-15.056	C.3	11	GLU1197	0.000	
75	  CG	-26.838	15.175	-15.685	C.3	11	GLU1197	0.000	
76	  CD	-26.359	14.893	-17.092	C.2	11	GLU1197	0.000	
77	 OE1	-25.428	15.591	-17.546	O.co2	11	GLU1197	0.000	
78	 OE2	-26.945	14.015	-17.764	O.co2	11	GLU1197	0.000	
79	   N	-27.331	14.887	-12.123	N.am	12	LEU1198	0.000	
80	  CA	-27.296	13.684	-11.304	C.3	12	LEU1198	0.000	
81	   C	-27.188	12.490	-12.222	C.2	12	LEU1198	0.000	
82	   O	-27.965	12.382	-13.162	O.2	12	LEU1198	0.000	
83	  CB	-28.537	13.573	-10.389	C.3	12	LEU1198	0.000	
84	  CG	-28.516	12.375	-9.404	C.3	12	LEU1198	0.000	
85	 CD1	-27.372	12.480	-8.393	C.3	12	LEU1198	0.000	
86	 CD2	-29.849	12.193	-8.712	C.3	12	LEU1198	0.000	
87	   N	-26.207	11.611	-11.971	N.am	13	MET1199	0.000	
88	  CA	-25.986	10.414	-12.786	C.3	13	MET1199	0.000	
89	   C	-26.424	9.219	-11.947	C.2	13	MET1199	0.000	
90	   O	-25.717	8.788	-11.034	O.2	13	MET1199	0.000	
91	  CB	-24.505	10.355	-13.237	C.3	13	MET1199	0.000	
92	  CG	-24.092	11.574	-14.074	C.3	13	MET1199	0.000	
93	  SD	-24.897	11.601	-15.695	S.3	13	MET1199	0.000	
94	  CE	-23.856	10.392	-16.545	C.3	13	MET1199	0.000	
95	   N	-27.639	8.739	-12.221	N.am	14	ALA1200	0.000	
96	  CA	-28.313	7.686	-11.455	C.3	14	ALA1200	0.000	
97	   C	-27.731	6.262	-11.576	C.2	14	ALA1200	0.000	
98	   O	-28.139	5.369	-10.835	O.2	14	ALA1200	0.000	
99	  CB	-29.824	7.723	-11.706	C.3	14	ALA1200	0.000	
100	   N	-24.422	5.892	-11.142	N.am	15	GLY1202	0.000	
101	  CA	-23.184	6.066	-10.374	C.3	15	GLY1202	0.000	
102	   C	-21.946	6.110	-11.260	C.2	15	GLY1202	0.000	
103	   O	-22.049	6.325	-12.471	O.2	15	GLY1202	0.000	
104	   N	-20.762	5.921	-10.660	N.am	16	ASP1203	0.000	
105	  CA	-19.496	5.884	-11.390	C.3	16	ASP1203	0.000	
106	   C	-19.370	4.545	-12.141	C.2	16	ASP1203	0.000	
107	   O	-19.975	3.538	-11.751	O.2	16	ASP1203	0.000	
108	  CB	-18.294	6.128	-10.454	C.3	16	ASP1203	0.000	
109	  CG	-18.010	4.947	-9.543	C.2	16	ASP1203	0.000	
110	 OD1	-17.005	4.237	-9.783	O.co2	16	ASP1203	0.000	
111	 OD2	-18.799	4.718	-8.624	O.co2	16	ASP1203	0.000	
112	   N	-17.536	1.374	-10.211	N.am	17	SER1206	0.000	
113	  CA	-18.406	0.638	-9.287	C.3	17	SER1206	0.000	
114	   C	-19.543	-0.053	-10.043	C.2	17	SER1206	0.000	
115	   O	-19.938	-1.133	-9.651	O.2	17	SER1206	0.000	
116	  CB	-18.936	1.546	-8.186	C.3	17	SER1206	0.000	
117	  OG	-19.907	2.431	-8.715	O.3	17	SER1206	0.000	
118	   N	-20.051	-4.109	-9.707	N.am	18	GLU1210	0.000	
119	  CA	-21.356	-4.529	-9.172	C.3	18	GLU1210	0.000	
120	   C	-22.304	-5.212	-10.166	C.2	18	GLU1210	0.000	
121	   O	-23.197	-5.939	-9.737	O.2	18	GLU1210	0.000	
122	  CB	-22.078	-3.337	-8.532	C.3	18	GLU1210	0.000	
123	  CG	-21.424	-2.838	-7.251	C.3	18	GLU1210	0.000	
124	  CD	-21.924	-1.508	-6.712	C.2	18	GLU1210	0.000	
125	 OE1	-23.075	-1.121	-7.020	O.co2	18	GLU1210	0.000	
126	 OE2	-21.166	-0.866	-5.948	O.co2	18	GLU1210	0.000	
127	   N	-12.982	5.647	-12.990	N.am	19	ARG1253	0.000	
128	  CA	-13.406	6.368	-11.772	C.3	19	ARG1253	0.000	
129	   C	-13.945	7.786	-12.083	C.2	19	ARG1253	0.000	
130	   O	-14.676	8.352	-11.267	O.2	19	ARG1253	0.000	
131	  CB	-12.249	6.440	-10.732	C.3	19	ARG1253	0.000	
132	  CG	-11.073	7.291	-11.218	C.3	19	ARG1253	0.000	
133	  CD	-9.889	7.430	-10.245	C.3	19	ARG1253	0.000	
134	  NE	-8.780	8.073	-10.960	N.pl3	19	ARG1253	0.000	
135	  CZ	-7.919	7.412	-11.728	C.cat	19	ARG1253	0.000	
136	 NH1	-7.977	6.092	-11.817	N.pl3	19	ARG1253	0.000	
137	 NH2	-6.997	8.068	-12.418	N.pl3	19	ARG1253	0.000	
138	   N	-13.588	8.338	-13.274	N.am	20	ASN1254	0.000	
139	  CA	-13.981	9.675	-13.710	C.3	20	ASN1254	0.000	
140	   C	-15.173	9.691	-14.668	C.2	20	ASN1254	0.000	
141	   O	-15.601	10.765	-15.094	O.2	20	ASN1254	0.000	
142	  CB	-12.765	10.451	-14.271	C.3	20	ASN1254	0.000	
143	  CG	-11.724	10.765	-13.221	C.2	20	ASN1254	0.000	
144	 ND2	-10.468	10.863	-13.618	N.pl3	20	ASN1254	0.000	
145	 OD1	-12.034	10.970	-12.047	O.2	20	ASN1254	0.000	
146	   N	-19.259	8.429	-15.458	N.am	21	LEU1256	0.000	
147	  CA	-20.529	8.214	-14.758	C.3	21	LEU1256	0.000	
148	   C	-21.580	7.715	-15.741	C.2	21	LEU1256	0.000	
149	   O	-21.450	7.912	-16.960	O.2	21	LEU1256	0.000	
150	  CB	-20.994	9.553	-14.127	C.3	21	LEU1256	0.000	
151	  CG	-20.119	10.196	-13.047	C.3	21	LEU1256	0.000	
152	 CD1	-20.410	11.695	-12.931	C.3	21	LEU1256	0.000	
153	 CD2	-20.371	9.560	-11.692	C.3	21	LEU1256	0.000	
154	   N	-17.275	12.865	-16.039	N.am	22	GLY1269	0.000	
155	  CA	-17.818	13.610	-14.909	C.3	22	GLY1269	0.000	
156	   C	-16.836	14.264	-13.972	C.2	22	GLY1269	0.000	
157	   O	-17.253	14.796	-12.944	O.2	22	GLY1269	0.000	
158	   N	-15.540	14.254	-14.305	N.am	23	ASP1270	0.000	
159	  CA	-14.521	14.888	-13.459	C.3	23	ASP1270	0.000	
160	   C	-13.448	15.550	-14.307	C.2	23	ASP1270	0.000	
161	   O	-13.025	14.969	-15.291	O.2	23	ASP1270	0.000	
162	  CB	-13.880	13.867	-12.517	C.3	23	ASP1270	0.000	
163	  CG	-12.989	14.499	-11.464	C.2	23	ASP1270	0.000	
164	 OD1	-11.810	14.798	-11.778	O.co2	23	ASP1270	0.000	
165	 OD2	-13.458	14.677	-10.333	O.co2	23	ASP1270	0.000	
@<TRIPOS>BOND
1 1 2 1
2 2 3 1
3 2 5 1
4 3 4 2
5 3 9 1
6 5 6 1
7 6 7 1
8 6 8 1
9 9 10 1
10 10 11 1
11 11 12 2
12 11 13 1
13 13 14 1
14 14 15 1
15 14 17 1
16 15 16 2
17 15 23 1
18 17 18 1
19 18 19 2
20 18 20 1
21 19 22 1
22 20 21 2
23 21 22 1
24 23 24 1
25 24 25 1
26 25 26 2
27 25 27 1
28 27 28 1
29 28 29 1
30 28 31 1
31 29 30 2
32 32 33 1
33 33 34 1
34 33 36 1
35 34 35 2
36 36 37 1
37 36 38 1
38 39 40 1
39 40 41 1
40 40 43 1
41 41 42 2
42 43 44 1
43 44 45 1
44 45 46 2
45 45 47 1
46 48 49 1
47 49 50 1
48 49 52 1
49 50 51 2
50 53 54 1
51 54 55 1
52 54 57 1
53 55 56 2
54 57 58 1
55 58 59 1
56 59 60 1
57 60 61 1
58 62 63 1
59 63 64 1
60 63 66 1
61 64 65 2
62 64 70 1
63 66 67 1
64 67 68 1
65 67 69 1
66 70 71 1
67 71 72 1
68 71 74 1
69 72 73 2
70 72 79 1
71 74 75 1
72 75 76 1
73 76 77 2
74 76 78 1
75 79 80 1
76 80 81 1
77 80 83 1
78 81 82 2
79 81 87 1
80 83 84 1
81 84 85 1
82 84 86 1
83 87 88 1
84 88 89 1
85 88 91 1
86 89 90 2
87 89 95 1
88 91 92 1
89 92 93 1
90 93 94 1
91 95 96 1
92 96 97 1
93 96 99 1
94 97 98 2
95 100 101 1
96 101 102 1
97 102 103 2
98 102 104 1
99 104 105 1
100 105 106 1
101 105 108 1
102 106 107 2
103 108 109 1
104 109 110 2
105 109 111 1
106 112 113 1
107 113 114 1
108 113 116 1
109 114 115 2
110 116 117 1
111 118 119 1
112 119 120 1
113 119 122 1
114 120 121 2
115 122 123 1
116 123 124 1
117 124 125 2
118 124 126 1
119 127 128 1
120 128 129 1
121 128 131 1
122 129 130 2
123 129 138 1
124 131 132 1
125 132 133 1
126 133 134 1
127 134 135 1
128 135 136 2
129 135 137 1
130 138 139 1
131 139 140 1
132 139 142 1
133 140 141 2
134 142 143 1
135 143 144 1
136 143 145 2
137 146 147 1
138 147 148 1
139 147 150 1
140 148 149 2
141 150 151 1
142 151 152 1
143 151 153 1
144 154 155 1
145 155 156 1
146 156 157 2
147 156 158 1
148 158 159 1
149 159 160 1
150 159 162 1
151 160 161 2
152 162 163 1
153 163 164 2
154 163 165 1
@<TRIPOS>SUBSTRUCTURE
1	LEU1122	1	RESIDUE	1 B	LEU
2	GLY1123	9	RESIDUE	1 B	GLY
3	HIS1124	13	RESIDUE	1 B	HIS
4	GLY1125	23	RESIDUE	1 B	GLY
5	ALA1126	27	RESIDUE	1 B	ALA
6	VAL1130	32	RESIDUE	1 B	VAL
7	GLU1132	39	RESIDUE	1 B	GLU
8	ALA1148	48	RESIDUE	1 B	ALA
9	LYS1150	53	RESIDUE	1 B	LYS
10	LEU1196	62	RESIDUE	1 B	LEU
11	GLU1197	70	RESIDUE	1 B	GLU
12	LEU1198	79	RESIDUE	1 B	LEU
13	MET1199	87	RESIDUE	1 B	MET
14	ALA1200	95	RESIDUE	1 B	ALA
15	GLY1202	100	RESIDUE	1 B	GLY
16	ASP1203	104	RESIDUE	1 B	ASP
17	SER1206	112	RESIDUE	1 B	SER
18	GLU1210	118	RESIDUE	1 B	GLU
19	ARG1253	127	RESIDUE	1 B	ARG
20	ASN1254	138	RESIDUE	1 B	ASN
21	LEU1256	146	RESIDUE	1 B	LEU
22	GLY1269	154	RESIDUE	1 B	GLY
23	ASP1270	158	RESIDUE	1 B	ASP
