# created with PyMOL 2.5.2
@<TRIPOS>MOLECULE
SIRT2_4RMI_TargetProtein
176 174 20              
SMALL
USER_CHARGES
@<TRIPOS>ATOM
1	   N	-21.187	7.345	19.251	N.am	1	ILE93	0.000	
2	  CA	-20.894	6.649	18.013	C.3	1	ILE93	0.000	
3	   C	-21.478	5.249	18.122	C.2	1	ILE93	0.000	
4	   O	-21.002	4.452	18.939	O.2	1	ILE93	0.000	
5	  CB	-19.398	6.689	17.712	C.3	1	ILE93	0.000	
6	 CG1	-19.016	8.180	17.591	C.3	1	ILE93	0.000	
7	 CG2	-19.096	5.892	16.440	C.3	1	ILE93	0.000	
8	 CD1	-17.535	8.463	17.451	C.3	1	ILE93	0.000	
9	   N	-22.567	4.971	17.374	N.am	2	PRO94	0.000	
10	  CA	-23.136	3.625	17.441	C.3	2	PRO94	0.000	
11	   C	-22.349	2.528	16.719	C.2	2	PRO94	0.000	
12	   O	-21.728	2.767	15.684	O.2	2	PRO94	0.000	
13	  CB	-24.513	3.798	16.783	C.3	2	PRO94	0.000	
14	  CG	-24.868	5.210	17.074	C.3	2	PRO94	0.000	
15	  CD	-23.570	5.936	16.871	C.3	2	PRO94	0.000	
16	   N	-21.790	-0.173	14.382	N.am	3	PHE96	0.000	
17	  CA	-22.439	-0.387	13.087	C.3	3	PHE96	0.000	
18	   C	-22.886	-1.831	12.858	C.2	3	PHE96	0.000	
19	   O	-23.595	-2.111	11.886	O.2	3	PHE96	0.000	
20	  CB	-21.555	0.098	11.926	C.3	3	PHE96	0.000	
21	  CG	-20.356	-0.771	11.645	C.2	3	PHE96	0.000	
22	 CD1	-20.489	-1.968	10.952	C.2	3	PHE96	0.000	
23	 CD2	-19.087	-0.376	12.047	C.2	3	PHE96	0.000	
24	 CE1	-19.390	-2.766	10.690	C.2	3	PHE96	0.000	
25	 CE2	-17.976	-1.167	11.775	C.2	3	PHE96	0.000	
26	  CZ	-18.133	-2.363	11.095	C.2	3	PHE96	0.000	
27	   N	-19.602	-2.670	2.037	N.3	4	PHE119	0.000	
28	  CA	-18.488	-3.205	2.812	C.3	4	PHE119	0.000	
29	   C	-17.387	-3.845	1.965	C.2	4	PHE119	0.000	
30	   O	-16.266	-4.045	2.449	O.2	4	PHE119	0.000	
31	  CB	-18.992	-4.249	3.814	C.3	4	PHE119	0.000	
32	  CG	-20.032	-3.731	4.762	C.2	4	PHE119	0.000	
33	 CD1	-19.666	-3.154	5.970	C.2	4	PHE119	0.000	
34	 CD2	-21.382	-3.831	4.452	C.2	4	PHE119	0.000	
35	 CE1	-20.624	-2.679	6.849	C.2	4	PHE119	0.000	
36	 CE2	-22.346	-3.358	5.328	C.2	4	PHE119	0.000	
37	  CZ	-21.963	-2.782	6.530	C.2	4	PHE119	0.000	
38	   N	-20.726	3.887	-0.540	N.am	5	PHE131	0.000	
39	  CA	-19.929	3.929	0.676	C.3	5	PHE131	0.000	
40	   C	-19.812	5.384	1.156	C.2	5	PHE131	0.000	
41	   O	-19.978	5.671	2.338	O.2	5	PHE131	0.000	
42	  CB	-18.539	3.338	0.473	C.3	5	PHE131	0.000	
43	  CG	-17.629	3.617	1.626	C.2	5	PHE131	0.000	
44	 CD1	-17.665	2.832	2.768	C.2	5	PHE131	0.000	
45	 CD2	-16.803	4.718	1.598	C.2	5	PHE131	0.000	
46	 CE1	-16.832	3.109	3.854	C.2	5	PHE131	0.000	
47	 CE2	-15.977	5.004	2.673	C.2	5	PHE131	0.000	
48	  CZ	-15.999	4.205	3.797	C.2	5	PHE131	0.000	
49	   N	-23.046	6.584	2.593	N.am	6	LEU134	0.000	
50	  CA	-23.205	5.969	3.918	C.3	6	LEU134	0.000	
51	   C	-22.274	6.599	4.944	C.2	6	LEU134	0.000	
52	   O	-22.693	6.892	6.070	O.2	6	LEU134	0.000	
53	  CB	-22.957	4.466	3.844	C.3	6	LEU134	0.000	
54	  CG	-22.942	3.729	5.180	C.3	6	LEU134	0.000	
55	 CD1	-24.342	3.712	5.786	C.3	6	LEU134	0.000	
56	 CD2	-22.404	2.319	4.977	C.3	6	LEU134	0.000	
57	   N	-21.006	6.772	4.561	N.am	7	ALA135	0.000	
58	  CA	-20.035	7.563	5.334	C.3	7	ALA135	0.000	
59	   C	-20.587	8.930	5.764	C.2	7	ALA135	0.000	
60	   O	-20.440	9.329	6.920	O.2	7	ALA135	0.000	
61	  CB	-18.749	7.765	4.525	C.3	7	ALA135	0.000	
62	   N	-21.220	9.666	4.852	N.am	8	LYS136	0.000	
63	  CA	-21.783	10.972	5.216	C.3	8	LYS136	0.000	
64	   C	-22.857	10.823	6.283	C.2	8	LYS136	0.000	
65	   O	-22.882	11.574	7.255	O.2	8	LYS136	0.000	
66	  CB	-22.380	11.699	4.005	C.3	8	LYS136	0.000	
67	  CG	-22.965	13.057	4.357	C.3	8	LYS136	0.000	
68	  CD	-22.999	14.008	3.171	C.3	8	LYS136	0.000	
69	  CE	-23.729	15.294	3.525	C.3	8	LYS136	0.000	
70	  NZ	-23.775	16.225	2.365	N.4	8	LYS136	0.000	
71	   N	-23.263	8.480	8.498	N.am	9	LEU138	0.000	
72	  CA	-22.804	8.003	9.809	C.3	9	LEU138	0.000	
73	   C	-21.703	8.866	10.443	C.2	9	LEU138	0.000	
74	   O	-21.219	8.541	11.532	O.2	9	LEU138	0.000	
75	  CB	-22.327	6.551	9.684	C.3	9	LEU138	0.000	
76	  CG	-23.307	5.565	9.034	C.3	9	LEU138	0.000	
77	 CD1	-22.713	4.171	9.089	C.3	9	LEU138	0.000	
78	 CD2	-24.661	5.579	9.715	C.3	9	LEU138	0.000	
79	   N	-21.329	9.970	9.796	N.am	10	TYR139	0.000	
80	  CA	-20.190	10.780	10.229	C.3	10	TYR139	0.000	
81	   C	-20.483	11.409	11.584	C.2	10	TYR139	0.000	
82	   O	-21.439	12.191	11.691	O.2	10	TYR139	0.000	
83	  CB	-19.849	11.881	9.219	C.3	10	TYR139	0.000	
84	  CG	-18.398	12.297	9.300	C.2	10	TYR139	0.000	
85	 CD1	-17.939	13.122	10.330	C.2	10	TYR139	0.000	
86	 CD2	-17.467	11.815	8.390	C.2	10	TYR139	0.000	
87	 CE1	-16.613	13.503	10.419	C.2	10	TYR139	0.000	
88	 CE2	-16.136	12.195	8.463	C.2	10	TYR139	0.000	
89	  CZ	-15.705	13.015	9.486	C.2	10	TYR139	0.000	
90	  OH	-14.376	13.341	9.528	O.3	10	TYR139	0.000	
91	   N	-19.690	11.055	12.625	N.am	11	PRO140	0.000	
92	  CA	-20.067	11.511	13.970	C.3	11	PRO140	0.000	
93	   C	-20.161	13.009	14.054	C.2	11	PRO140	0.000	
94	   O	-19.413	13.699	13.382	O.2	11	PRO140	0.000	
95	  CB	-18.909	10.991	14.842	C.3	11	PRO140	0.000	
96	  CG	-18.496	9.739	14.148	C.3	11	PRO140	0.000	
97	  CD	-18.570	10.094	12.692	C.3	11	PRO140	0.000	
98	   N	-16.207	14.492	18.096	N.am	12	PHE143	0.000	
99	  CA	-15.219	13.466	18.445	C.3	12	PHE143	0.000	
100	   C	-14.651	13.718	19.844	C.2	12	PHE143	0.000	
101	   O	-13.604	14.350	20.035	O.2	12	PHE143	0.000	
102	  CB	-14.143	13.455	17.410	C.3	12	PHE143	0.000	
103	  CG	-14.590	12.910	16.093	C.2	12	PHE143	0.000	
104	 CD1	-14.521	11.553	15.806	C.2	12	PHE143	0.000	
105	 CD2	-15.118	13.759	15.141	C.2	12	PHE143	0.000	
106	 CE1	-14.940	11.078	14.569	C.2	12	PHE143	0.000	
107	 CE2	-15.533	13.289	13.918	C.2	12	PHE143	0.000	
108	  CZ	-15.453	11.948	13.626	C.2	12	PHE143	0.000	
109	   N	-12.751	2.371	14.326	N.am	13	ILE169	0.000	
110	  CA	-12.286	3.182	13.210	C.3	13	ILE169	0.000	
111	   C	-12.481	4.674	13.413	C.2	13	ILE169	0.000	
112	   O	-12.141	5.470	12.537	O.2	13	ILE169	0.000	
113	  CB	-12.892	2.724	11.852	C.3	13	ILE169	0.000	
114	 CG1	-14.401	3.010	11.793	C.3	13	ILE169	0.000	
115	 CG2	-12.540	1.261	11.583	C.3	13	ILE169	0.000	
116	 CD1	-15.148	2.396	10.615	C.3	13	ILE169	0.000	
117	   N	-12.921	5.060	14.610	N.am	14	ASP170	0.000	
118	  CA	-13.441	6.429	14.911	C.3	14	ASP170	0.000	
119	   C	-12.385	7.449	15.301	C.2	14	ASP170	0.000	
120	   O	-12.716	8.630	15.464	O.2	14	ASP170	0.000	
121	  CB	-14.531	6.364	16.038	C.3	14	ASP170	0.000	
122	  CG	-14.087	5.595	17.302	C.2	14	ASP170	0.000	
123	 OD1	-12.927	5.714	17.734	O.co2	14	ASP170	0.000	
124	 OD2	-14.944	4.882	17.899	O.co2	14	ASP170	0.000	
125	   N	-11.134	7.011	15.459	N.am	15	THR171	0.000	
126	  CA	-9.945	7.835	15.842	C.3	15	THR171	0.000	
127	   C	-9.929	8.324	17.296	C.2	15	THR171	0.000	
128	   O	-9.012	9.065	17.689	O.2	15	THR171	0.000	
129	  CB	-9.716	9.043	14.913	C.3	15	THR171	0.000	
130	 CG2	-9.808	8.621	13.438	C.3	15	THR171	0.000	
131	 OG1	-10.636	10.121	15.220	O.3	15	THR171	0.000	
132	   N	-10.184	5.827	9.943	N.am	16	PHE190	0.000	
133	  CA	-10.463	6.970	9.106	C.3	16	PHE190	0.000	
134	   C	-9.388	8.033	9.203	C.2	16	PHE190	0.000	
135	   O	-9.386	8.938	8.434	O.2	16	PHE190	0.000	
136	  CB	-11.810	7.596	9.461	C.3	16	PHE190	0.000	
137	  CG	-12.969	7.005	8.720	C.2	16	PHE190	0.000	
138	 CD1	-13.286	7.410	7.418	C.2	16	PHE190	0.000	
139	 CD2	-13.758	6.053	9.319	C.2	16	PHE190	0.000	
140	 CE1	-14.385	6.861	6.758	C.2	16	PHE190	0.000	
141	 CE2	-14.845	5.485	8.670	C.2	16	PHE190	0.000	
142	  CZ	-15.165	5.892	7.375	C.2	16	PHE190	0.000	
143	   N	-7.772	13.315	7.451	N.am	17	LEU206	0.000	
144	  CA	-9.230	13.198	7.589	C.3	17	LEU206	0.000	
145	   C	-9.894	14.500	7.216	C.2	17	LEU206	0.000	
146	   O	-10.990	14.492	6.700	O.2	17	LEU206	0.000	
147	  CB	-9.635	12.778	9.028	C.3	17	LEU206	0.000	
148	  CG	-11.121	12.538	9.308	C.3	17	LEU206	0.000	
149	 CD1	-11.791	11.620	8.299	C.3	17	LEU206	0.000	
150	 CD2	-11.282	11.992	10.728	C.3	17	LEU206	0.000	
151	   N	-9.580	2.154	6.287	N.am	18	ILE232	0.000	
152	  CA	-10.292	1.152	7.040	C.3	18	ILE232	0.000	
153	   C	-10.210	-0.163	6.306	C.2	18	ILE232	0.000	
154	   O	-10.060	-0.192	5.085	O.2	18	ILE232	0.000	
155	  CB	-11.775	1.543	7.299	C.3	18	ILE232	0.000	
156	 CG1	-12.597	1.625	6.018	C.3	18	ILE232	0.000	
157	 CG2	-11.781	2.844	8.060	C.3	18	ILE232	0.000	
158	 CD1	-14.099	1.743	6.248	C.3	18	ILE232	0.000	
159	   N	-10.273	-1.249	7.049	N.am	19	VAL233	0.000	
160	  CA	-10.257	-2.575	6.444	C.3	19	VAL233	0.000	
161	   C	-11.678	-2.916	5.932	C.2	19	VAL233	0.000	
162	   O	-12.558	-3.112	6.748	O.2	19	VAL233	0.000	
163	  CB	-9.774	-3.608	7.464	C.3	19	VAL233	0.000	
164	 CG1	-9.844	-5.016	6.888	C.3	19	VAL233	0.000	
165	 CG2	-8.331	-3.292	7.885	C.3	19	VAL233	0.000	
166	   N	-11.864	-2.921	4.602	N.am	20	PHE234	0.000	
167	  CA	-13.105	-3.394	3.937	C.3	20	PHE234	0.000	
168	   C	-13.084	-4.912	3.852	C.2	20	PHE234	0.000	
169	   O	-12.006	-5.511	3.858	O.2	20	PHE234	0.000	
170	  CB	-13.201	-2.900	2.494	C.3	20	PHE234	0.000	
171	  CG	-13.690	-1.484	2.338	C.2	20	PHE234	0.000	
172	 CD1	-12.984	-0.418	2.876	C.2	20	PHE234	0.000	
173	 CD2	-14.829	-1.212	1.585	C.2	20	PHE234	0.000	
174	 CE1	-13.411	0.877	2.693	C.2	20	PHE234	0.000	
175	 CE2	-15.263	0.080	1.404	C.2	20	PHE234	0.000	
176	  CZ	-14.557	1.129	1.963	C.2	20	PHE234	0.000	
@<TRIPOS>BOND
1 1 2 1
2 2 3 1
3 2 5 1
4 3 4 2
5 3 9 1
6 5 6 1
7 5 7 1
8 6 8 1
9 9 10 1
10 9 15 1
11 10 11 1
12 10 13 1
13 11 12 2
14 13 14 1
15 14 15 1
16 16 17 1
17 17 18 1
18 17 20 1
19 18 19 2
20 20 21 1
21 21 22 2
22 21 23 1
23 22 24 1
24 23 25 2
25 24 26 2
26 25 26 1
27 27 28 1
28 28 29 1
29 28 31 1
30 29 30 2
31 31 32 1
32 32 33 2
33 32 34 1
34 33 35 1
35 34 36 2
36 35 37 2
37 36 37 1
38 38 39 1
39 39 40 1
40 39 42 1
41 40 41 2
42 42 43 1
43 43 44 2
44 43 45 1
45 44 46 1
46 45 47 2
47 46 48 2
48 47 48 1
49 49 50 1
50 50 51 1
51 50 53 1
52 51 52 2
53 51 57 1
54 53 54 1
55 54 55 1
56 54 56 1
57 57 58 1
58 58 59 1
59 58 61 1
60 59 60 2
61 59 62 1
62 62 63 1
63 63 64 1
64 63 66 1
65 64 65 2
66 66 67 1
67 67 68 1
68 68 69 1
69 69 70 1
70 71 72 1
71 72 73 1
72 72 75 1
73 73 74 2
74 73 79 1
75 75 76 1
76 76 77 1
77 76 78 1
78 79 80 1
79 80 81 1
80 80 83 1
81 81 82 2
82 81 91 1
83 83 84 1
84 84 85 2
85 84 86 1
86 85 87 1
87 86 88 2
88 87 89 2
89 88 89 1
90 89 90 1
91 91 92 1
92 91 97 1
93 92 93 1
94 92 95 1
95 93 94 2
96 95 96 1
97 96 97 1
98 98 99 1
99 99 100 1
100 99 102 1
101 100 101 2
102 102 103 1
103 103 104 2
104 103 105 1
105 104 106 1
106 105 107 2
107 106 108 2
108 107 108 1
109 109 110 1
110 110 111 1
111 110 113 1
112 111 112 2
113 111 117 1
114 113 114 1
115 113 115 1
116 114 116 1
117 117 118 1
118 118 119 1
119 118 121 1
120 119 120 2
121 119 125 1
122 121 122 1
123 122 123 2
124 122 124 1
125 125 126 1
126 126 127 1
127 126 129 1
128 127 128 2
129 129 130 1
130 129 131 1
131 132 133 1
132 133 134 1
133 133 136 1
134 134 135 2
135 136 137 1
136 137 138 2
137 137 139 1
138 138 140 1
139 139 141 2
140 140 142 2
141 141 142 1
142 143 144 1
143 144 145 1
144 144 147 1
145 145 146 2
146 147 148 1
147 148 149 1
148 148 150 1
149 151 152 1
150 152 153 1
151 152 155 1
152 153 154 2
153 153 159 1
154 155 156 1
155 155 157 1
156 156 158 1
157 159 160 1
158 160 161 1
159 160 163 1
160 161 162 2
161 161 166 1
162 163 164 1
163 163 165 1
164 166 167 1
165 167 168 1
166 167 170 1
167 168 169 2
168 170 171 1
169 171 172 2
170 171 173 1
171 172 174 1
172 173 175 2
173 174 176 2
174 175 176 1
@<TRIPOS>SUBSTRUCTURE
1	ILE93	1	RESIDUE	1 B	ILE
2	PRO94	9	RESIDUE	1 B	PRO
3	PHE96	16	RESIDUE	1 B	PHE
4	PHE119	27	RESIDUE	1 B	PHE
5	PHE131	38	RESIDUE	1 B	PHE
6	LEU134	49	RESIDUE	1 B	LEU
7	ALA135	57	RESIDUE	1 B	ALA
8	LYS136	62	RESIDUE	1 B	LYS
9	LEU138	71	RESIDUE	1 B	LEU
10	TYR139	79	RESIDUE	1 B	TYR
11	PRO140	91	RESIDUE	1 B	PRO
12	PHE143	98	RESIDUE	1 B	PHE
13	ILE169	109	RESIDUE	1 B	ILE
14	ASP170	117	RESIDUE	1 B	ASP
15	THR171	125	RESIDUE	1 B	THR
16	PHE190	132	RESIDUE	1 B	PHE
17	LEU206	143	RESIDUE	1 B	LEU
18	ILE232	151	RESIDUE	1 B	ILE
19	VAL233	159	RESIDUE	1 B	VAL
20	PHE234	166	RESIDUE	1 B	PHE
