# created with PyMOL 2.5.2
@<TRIPOS>MOLECULE
BRAF_4XV2_TargetProtein
198 191 25              
SMALL
USER_CHARGES
@<TRIPOS>ATOM
1	   N	6.234	2.341	-26.613	N.am	1	ILE463	0.000	
2	  CA	6.746	1.082	-26.098	C.3	1	ILE463	0.000	
3	   C	6.542	-0.038	-27.116	C.2	1	ILE463	0.000	
4	   O	7.465	-0.794	-27.412	O.2	1	ILE463	0.000	
5	  CB	6.077	0.713	-24.756	C.3	1	ILE463	0.000	
6	 CG1	6.321	1.813	-23.717	C.3	1	ILE463	0.000	
7	 CG2	6.575	-0.634	-24.253	C.3	1	ILE463	0.000	
8	 CD1	7.782	2.178	-23.527	C.3	1	ILE463	0.000	
9	   N	5.331	-0.130	-27.657	N.am	2	GLY464	0.000	
10	  CA	5.019	-1.127	-28.663	C.3	2	GLY464	0.000	
11	   C	3.533	-1.402	-28.786	C.2	2	GLY464	0.000	
12	   O	2.716	-0.733	-28.159	O.2	2	GLY464	0.000	
13	   N	3.183	-2.391	-29.601	N.am	3	SER465	0.000	
14	  CA	1.788	-2.775	-29.788	C.3	3	SER465	0.000	
15	   C	1.540	-4.190	-29.283	C.2	3	SER465	0.000	
16	   O	2.355	-5.087	-29.494	O.2	3	SER465	0.000	
17	  CB	1.385	-2.664	-31.262	C.3	3	SER465	0.000	
18	  OG	1.321	-1.311	-31.677	O.3	3	SER465	0.000	
19	   N	0.407	-4.383	-28.619	N.am	4	GLY466	0.000	
20	  CA	0.074	-5.679	-28.059	C.3	4	GLY466	0.000	
21	   C	-1.131	-6.327	-28.710	C.2	4	GLY466	0.000	
22	   O	-1.358	-6.176	-29.914	O.2	4	GLY466	0.000	
23	   N	-4.128	-5.563	-28.345	N.am	5	PHE468	0.000	
24	  CA	-4.906	-4.462	-28.891	C.3	5	PHE468	0.000	
25	   C	-4.357	-3.138	-28.370	C.2	5	PHE468	0.000	
26	   O	-3.978	-3.029	-27.206	O.2	5	PHE468	0.000	
27	  CB	-6.394	-4.613	-28.556	C.3	5	PHE468	0.000	
28	  CG	-6.748	-4.216	-27.151	C.2	5	PHE468	0.000	
29	 CD1	-6.593	-5.109	-26.102	C.2	5	PHE468	0.000	
30	 CD2	-7.249	-2.951	-26.881	C.2	5	PHE468	0.000	
31	 CE1	-6.921	-4.743	-24.806	C.2	5	PHE468	0.000	
32	 CE2	-7.580	-2.579	-25.590	C.2	5	PHE468	0.000	
33	  CZ	-7.416	-3.477	-24.551	C.2	5	PHE468	0.000	
34	   N	1.087	1.063	-26.835	N.am	6	VAL471	0.000	
35	  CA	1.488	1.480	-25.498	C.3	6	VAL471	0.000	
36	   C	2.588	2.533	-25.517	C.2	6	VAL471	0.000	
37	   O	3.563	2.413	-26.259	O.2	6	VAL471	0.000	
38	  CB	1.943	0.264	-24.662	C.3	6	VAL471	0.000	
39	 CG1	2.297	0.678	-23.237	C.3	6	VAL471	0.000	
40	 CG2	0.857	-0.800	-24.652	C.3	6	VAL471	0.000	
41	   N	1.437	3.840	-17.819	N.am	7	ALA481	0.000	
42	  CA	1.423	3.298	-19.163	C.3	7	ALA481	0.000	
43	   C	0.157	3.796	-19.836	C.2	7	ALA481	0.000	
44	   O	-0.926	3.728	-19.262	O.2	7	ALA481	0.000	
45	  CB	1.462	1.776	-19.132	C.3	7	ALA481	0.000	
46	   N	-2.186	3.278	-23.070	N.am	8	LYS483	0.000	
47	  CA	-2.521	2.495	-24.241	C.3	8	LYS483	0.000	
48	   C	-3.434	3.310	-25.127	C.2	8	LYS483	0.000	
49	   O	-4.593	3.544	-24.786	O.2	8	LYS483	0.000	
50	  CB	-3.194	1.176	-23.858	C.3	8	LYS483	0.000	
51	  CG	-3.711	0.394	-25.065	C.3	8	LYS483	0.000	
52	  CD	-4.185	-0.997	-24.687	C.3	8	LYS483	0.000	
53	  CE	-3.018	-1.891	-24.315	C.3	8	LYS483	0.000	
54	  NZ	-3.427	-3.321	-24.280	N.4	8	LYS483	0.000	
55	   N	-12.137	-3.930	-17.285	N.am	9	LEU505	0.000	
56	  CA	-10.890	-3.586	-16.617	C.3	9	LEU505	0.000	
57	   C	-11.152	-2.937	-15.260	C.2	9	LEU505	0.000	
58	   O	-10.406	-3.147	-14.303	O.2	9	LEU505	0.000	
59	  CB	-10.044	-2.674	-17.505	C.3	9	LEU505	0.000	
60	  CG	-9.724	-3.240	-18.892	C.3	9	LEU505	0.000	
61	 CD1	-9.013	-2.206	-19.759	C.3	9	LEU505	0.000	
62	 CD2	-8.903	-4.524	-18.799	C.3	9	LEU505	0.000	
63	   N	-11.177	-5.114	-11.951	N.am	10	THR508	0.000	
64	  CA	-9.999	-5.790	-11.415	C.3	10	THR508	0.000	
65	   C	-9.259	-4.973	-10.359	C.2	10	THR508	0.000	
66	   O	-8.802	-3.864	-10.622	O.2	10	THR508	0.000	
67	  CB	-9.004	-6.176	-12.526	C.3	10	THR508	0.000	
68	 CG2	-9.670	-7.085	-13.551	C.3	10	THR508	0.000	
69	 OG1	-8.515	-4.992	-13.174	O.3	10	THR508	0.000	
70	   N	-2.553	-8.393	-10.968	N.am	11	ILE513	0.000	
71	  CA	-3.154	-7.912	-12.204	C.3	11	ILE513	0.000	
72	   C	-2.741	-6.469	-12.444	C.2	11	ILE513	0.000	
73	   O	-2.791	-5.651	-11.529	O.2	11	ILE513	0.000	
74	  CB	-4.683	-7.999	-12.162	C.3	11	ILE513	0.000	
75	 CG1	-5.122	-9.444	-11.930	C.3	11	ILE513	0.000	
76	 CG2	-5.281	-7.466	-13.458	C.3	11	ILE513	0.000	
77	 CD1	-4.657	-10.394	-13.011	C.3	11	ILE513	0.000	
78	   N	-2.320	-6.169	-13.670	N.am	12	LEU514	0.000	
79	  CA	-1.892	-4.820	-14.034	C.3	12	LEU514	0.000	
80	   C	-2.947	-3.798	-13.635	C.2	12	LEU514	0.000	
81	   O	-4.105	-3.899	-14.038	O.2	12	LEU514	0.000	
82	  CB	-1.615	-4.731	-15.535	C.3	12	LEU514	0.000	
83	  CG	-1.120	-3.380	-16.053	C.3	12	LEU514	0.000	
84	 CD1	0.285	-3.093	-15.552	C.3	12	LEU514	0.000	
85	 CD2	-1.166	-3.330	-17.577	C.3	12	LEU514	0.000	
86	   N	-2.542	-2.822	-12.830	N.am	13	LEU515	0.000	
87	  CA	-3.480	-1.861	-12.257	C.3	13	LEU515	0.000	
88	   C	-4.067	-0.871	-13.265	C.2	13	LEU515	0.000	
89	   O	-3.367	-0.006	-13.788	O.2	13	LEU515	0.000	
90	  CB	-2.821	-1.091	-11.115	C.3	13	LEU515	0.000	
91	  CG	-3.779	-0.177	-10.353	C.3	13	LEU515	0.000	
92	 CD1	-4.921	-0.997	-9.771	C.3	13	LEU515	0.000	
93	 CD2	-3.053	0.604	-9.264	C.3	13	LEU515	0.000	
94	   N	-5.362	-1.004	-13.524	N.am	14	PHE516	0.000	
95	  CA	-6.089	-0.002	-14.289	C.3	14	PHE516	0.000	
96	   C	-6.196	1.277	-13.455	C.2	14	PHE516	0.000	
97	   O	-6.500	1.216	-12.263	O.2	14	PHE516	0.000	
98	  CB	-7.481	-0.523	-14.642	C.3	14	PHE516	0.000	
99	  CG	-8.451	0.555	-15.038	C.2	14	PHE516	0.000	
100	 CD1	-8.503	1.009	-16.346	C.2	14	PHE516	0.000	
101	 CD2	-9.317	1.110	-14.103	C.2	14	PHE516	0.000	
102	 CE1	-9.397	1.998	-16.719	C.2	14	PHE516	0.000	
103	 CE2	-10.212	2.100	-14.467	C.2	14	PHE516	0.000	
104	  CZ	-10.254	2.543	-15.777	C.2	14	PHE516	0.000	
105	   N	-6.347	4.195	-22.541	N.am	15	ILE527	0.000	
106	  CA	-6.463	3.571	-21.235	C.3	15	ILE527	0.000	
107	   C	-5.169	3.812	-20.474	C.2	15	ILE527	0.000	
108	   O	-4.079	3.714	-21.037	O.2	15	ILE527	0.000	
109	  CB	-6.757	2.066	-21.354	C.3	15	ILE527	0.000	
110	 CG1	-8.139	1.853	-21.978	C.3	15	ILE527	0.000	
111	 CG2	-6.699	1.397	-19.993	C.3	15	ILE527	0.000	
112	 CD1	-8.413	0.421	-22.396	C.3	15	ILE527	0.000	
113	   N	-2.742	2.857	-17.189	N.am	16	THR529	0.000	
114	  CA	-2.422	1.878	-16.163	C.3	16	THR529	0.000	
115	   C	-1.156	2.293	-15.440	C.2	16	THR529	0.000	
116	   O	-0.509	3.265	-15.820	O.2	16	THR529	0.000	
117	  CB	-2.210	0.469	-16.766	C.3	16	THR529	0.000	
118	 CG2	-3.335	0.117	-17.721	C.3	16	THR529	0.000	
119	 OG1	-0.957	0.428	-17.459	O.3	16	THR529	0.000	
120	   N	-0.806	1.548	-14.401	N.am	17	GLN530	0.000	
121	  CA	0.460	1.754	-13.720	C.3	17	GLN530	0.000	
122	   C	1.613	1.457	-14.663	C.2	17	GLN530	0.000	
123	   O	1.449	0.774	-15.680	O.2	17	GLN530	0.000	
124	  CB	0.567	0.830	-12.512	C.3	17	GLN530	0.000	
125	  CG	0.709	-0.636	-12.879	C.3	17	GLN530	0.000	
126	  CD	0.836	-1.533	-11.670	C.2	17	GLN530	0.000	
127	 NE2	1.830	-1.261	-10.834	N.pl3	17	GLN530	0.000	
128	 OE1	0.056	-2.468	-11.492	O.2	17	GLN530	0.000	
129	   N	2.788	1.958	-14.311	N.am	18	TRP531	0.000	
130	  CA	3.994	1.624	-15.046	C.3	18	TRP531	0.000	
131	   C	4.790	0.540	-14.325	C.2	18	TRP531	0.000	
132	   O	5.062	0.641	-13.128	O.2	18	TRP531	0.000	
133	  CB	4.858	2.862	-15.249	C.3	18	TRP531	0.000	
134	  CG	6.113	2.573	-15.984	C.2	18	TRP531	0.000	
135	 CD1	7.359	2.457	-15.453	C.2	18	TRP531	0.000	
136	 CD2	6.250	2.354	-17.392	C.2	18	TRP531	0.000	
137	 CE2	7.614	2.117	-17.645	C.2	18	TRP531	0.000	
138	 CE3	5.353	2.338	-18.465	C.2	18	TRP531	0.000	
139	 NE1	8.271	2.186	-16.443	N.pl3	18	TRP531	0.000	
140	 CZ2	8.105	1.864	-18.923	C.2	18	TRP531	0.000	
141	 CZ3	5.841	2.089	-19.736	C.2	18	TRP531	0.000	
142	 CH2	7.205	1.855	-19.953	C.2	18	TRP531	0.000	
143	   N	5.162	-0.499	-15.063	N.am	19	CYS532	0.000	
144	  CA	5.966	-1.573	-14.502	C.3	19	CYS532	0.000	
145	   C	7.435	-1.332	-14.793	C.2	19	CYS532	0.000	
146	   O	7.813	-1.029	-15.924	O.2	19	CYS532	0.000	
147	  CB	5.540	-2.925	-15.071	C.3	19	CYS532	0.000	
148	  SG	3.866	-3.414	-14.633	S.3	19	CYS532	0.000	
149	   N	5.262	-12.995	-22.176	N.am	20	ASN580	0.000	
150	  CA	5.515	-11.577	-22.410	C.3	20	ASN580	0.000	
151	   C	4.338	-10.701	-21.991	C.2	20	ASN580	0.000	
152	   O	4.416	-9.476	-22.034	O.2	20	ASN580	0.000	
153	  CB	5.923	-11.311	-23.861	C.3	20	ASN580	0.000	
154	  CG	5.076	-12.069	-24.849	C.2	20	ASN580	0.000	
155	 ND2	5.604	-13.179	-25.354	N.pl3	20	ASN580	0.000	
156	 OD1	3.957	-11.665	-25.158	O.2	20	ASN580	0.000	
157	   N	4.424	-9.282	-16.602	N.am	21	PHE583	0.000	
158	  CA	5.444	-8.296	-16.287	C.3	21	PHE583	0.000	
159	   C	5.969	-8.488	-14.869	C.2	21	PHE583	0.000	
160	   O	5.200	-8.519	-13.908	O.2	21	PHE583	0.000	
161	  CB	4.868	-6.890	-16.461	C.3	21	PHE583	0.000	
162	  CG	4.203	-6.675	-17.793	C.2	21	PHE583	0.000	
163	 CD1	4.872	-6.969	-18.973	C.2	21	PHE583	0.000	
164	 CD2	2.904	-6.204	-17.867	C.2	21	PHE583	0.000	
165	 CE1	4.262	-6.783	-20.205	C.2	21	PHE583	0.000	
166	 CE2	2.287	-6.017	-19.098	C.2	21	PHE583	0.000	
167	  CZ	2.969	-6.310	-20.269	C.2	21	PHE583	0.000	
168	   N	-0.034	-9.312	-14.556	N.am	22	ILE592	0.000	
169	  CA	-0.654	-9.841	-15.763	C.3	22	ILE592	0.000	
170	   C	-1.428	-8.761	-16.506	C.2	22	ILE592	0.000	
171	   O	-2.350	-8.157	-15.963	O.2	22	ILE592	0.000	
172	  CB	-1.597	-11.023	-15.459	C.3	22	ILE592	0.000	
173	 CG1	-0.820	-12.177	-14.829	C.3	22	ILE592	0.000	
174	 CG2	-2.296	-11.491	-16.729	C.3	22	ILE592	0.000	
175	 CD1	-1.700	-13.318	-14.374	C.3	22	ILE592	0.000	
176	   N	-1.041	-8.522	-17.752	N.am	23	GLY593	0.000	
177	  CA	-1.725	-7.555	-18.584	C.3	23	GLY593	0.000	
178	   C	-1.998	-8.096	-19.971	C.2	23	GLY593	0.000	
179	   O	-1.912	-9.306	-20.201	O.2	23	GLY593	0.000	
180	   N	-2.348	-7.189	-20.880	N.am	24	ASP594	0.000	
181	  CA	-2.501	-7.483	-22.301	C.3	24	ASP594	0.000	
182	   C	-3.629	-8.469	-22.589	C.2	24	ASP594	0.000	
183	   O	-3.419	-9.466	-23.273	O.2	24	ASP594	0.000	
184	  CB	-1.180	-7.999	-22.875	C.3	24	ASP594	0.000	
185	  CG	-1.057	-7.760	-24.360	C.2	24	ASP594	0.000	
186	 OD1	-1.684	-6.805	-24.871	O.co2	24	ASP594	0.000	
187	 OD2	-0.320	-8.524	-25.017	O.co2	24	ASP594	0.000	
188	   N	-4.823	-8.185	-22.077	N.am	25	PHE595	0.000	
189	  CA	-5.961	-9.082	-22.273	C.3	25	PHE595	0.000	
190	   C	-6.327	-9.171	-23.751	C.2	25	PHE595	0.000	
191	   O	-5.995	-8.284	-24.535	O.2	25	PHE595	0.000	
192	  CB	-7.183	-8.635	-21.459	C.3	25	PHE595	0.000	
193	  CG	-6.990	-8.703	-19.964	C.2	25	PHE595	0.000	
194	 CD1	-5.834	-9.231	-19.415	C.2	25	PHE595	0.000	
195	 CD2	-7.976	-8.238	-19.108	C.2	25	PHE595	0.000	
196	 CE1	-5.658	-9.287	-18.045	C.2	25	PHE595	0.000	
197	 CE2	-7.807	-8.294	-17.737	C.2	25	PHE595	0.000	
198	  CZ	-6.647	-8.820	-17.206	C.2	25	PHE595	0.000	
@<TRIPOS>BOND
1 1 2 1
2 2 3 1
3 2 5 1
4 3 4 2
5 3 9 1
6 5 6 1
7 5 7 1
8 6 8 1
9 9 10 1
10 10 11 1
11 11 12 2
12 11 13 1
13 13 14 1
14 14 15 1
15 14 17 1
16 15 16 2
17 15 19 1
18 17 18 1
19 19 20 1
20 20 21 1
21 21 22 2
22 23 24 1
23 24 25 1
24 24 27 1
25 25 26 2
26 27 28 1
27 28 29 2
28 28 30 1
29 29 31 1
30 30 32 2
31 31 33 2
32 32 33 1
33 34 35 1
34 35 36 1
35 35 38 1
36 36 37 2
37 38 39 1
38 38 40 1
39 41 42 1
40 42 43 1
41 42 45 1
42 43 44 2
43 46 47 1
44 47 48 1
45 47 50 1
46 48 49 2
47 50 51 1
48 51 52 1
49 52 53 1
50 53 54 1
51 55 56 1
52 56 57 1
53 56 59 1
54 57 58 2
55 59 60 1
56 60 61 1
57 60 62 1
58 63 64 1
59 64 65 1
60 64 67 1
61 65 66 2
62 67 68 1
63 67 69 1
64 70 71 1
65 71 72 1
66 71 74 1
67 72 73 2
68 72 78 1
69 74 75 1
70 74 76 1
71 75 77 1
72 78 79 1
73 79 80 1
74 79 82 1
75 80 81 2
76 80 86 1
77 82 83 1
78 83 84 1
79 83 85 1
80 86 87 1
81 87 88 1
82 87 90 1
83 88 89 2
84 88 94 1
85 90 91 1
86 91 92 1
87 91 93 1
88 94 95 1
89 95 96 1
90 95 98 1
91 96 97 2
92 98 99 1
93 99 100 2
94 99 101 1
95 100 102 1
96 101 103 2
97 102 104 2
98 103 104 1
99 105 106 1
100 106 107 1
101 106 109 1
102 107 108 2
103 109 110 1
104 109 111 1
105 110 112 1
106 113 114 1
107 114 115 1
108 114 117 1
109 115 116 2
110 115 120 1
111 117 118 1
112 117 119 1
113 120 121 1
114 121 122 1
115 121 124 1
116 122 123 2
117 122 129 1
118 124 125 1
119 125 126 1
120 126 127 1
121 126 128 2
122 129 130 1
123 130 131 1
124 130 133 1
125 131 132 2
126 131 143 1
127 133 134 1
128 134 135 2
129 134 136 1
130 135 139 1
131 136 137 2
132 136 138 1
133 137 140 1
134 138 141 2
135 137 139 1
136 140 142 2
137 141 142 1
138 143 144 1
139 144 145 1
140 144 147 1
141 145 146 2
142 147 148 1
143 149 150 1
144 150 151 1
145 150 153 1
146 151 152 2
147 153 154 1
148 154 155 1
149 154 156 2
150 157 158 1
151 158 159 1
152 158 161 1
153 159 160 2
154 161 162 1
155 162 163 2
156 162 164 1
157 163 165 1
158 164 166 2
159 165 167 2
160 166 167 1
161 168 169 1
162 169 170 1
163 169 172 1
164 170 171 2
165 170 176 1
166 172 173 1
167 172 174 1
168 173 175 1
169 176 177 1
170 177 178 1
171 178 179 2
172 178 180 1
173 180 181 1
174 181 182 1
175 181 184 1
176 182 183 2
177 182 188 1
178 184 185 1
179 185 186 2
180 185 187 1
181 188 189 1
182 189 190 1
183 189 192 1
184 190 191 2
185 192 193 1
186 193 194 2
187 193 195 1
188 194 196 1
189 195 197 2
190 196 198 2
191 197 198 1
@<TRIPOS>SUBSTRUCTURE
1	ILE463	1	RESIDUE	1 B	ILE
2	GLY464	9	RESIDUE	1 B	GLY
3	SER465	13	RESIDUE	1 B	SER
4	GLY466	19	RESIDUE	1 B	GLY
5	PHE468	23	RESIDUE	1 B	PHE
6	VAL471	34	RESIDUE	1 B	VAL
7	ALA481	41	RESIDUE	1 B	ALA
8	LYS483	46	RESIDUE	1 B	LYS
9	LEU505	55	RESIDUE	1 B	LEU
10	THR508	63	RESIDUE	1 B	THR
11	ILE513	70	RESIDUE	1 B	ILE
12	LEU514	78	RESIDUE	1 B	LEU
13	LEU515	86	RESIDUE	1 B	LEU
14	PHE516	94	RESIDUE	1 B	PHE
15	ILE527	105	RESIDUE	1 B	ILE
16	THR529	113	RESIDUE	1 B	THR
17	GLN530	120	RESIDUE	1 B	GLN
18	TRP531	129	RESIDUE	1 B	TRP
19	CYS532	143	RESIDUE	1 B	CYS
20	ASN580	149	RESIDUE	1 B	ASN
21	PHE583	157	RESIDUE	1 B	PHE
22	ILE592	168	RESIDUE	1 B	ILE
23	GLY593	176	RESIDUE	1 B	GLY
24	ASP594	180	RESIDUE	1 B	ASP
25	PHE595	188	RESIDUE	1 B	PHE
