# created with PyMOL 2.5.2
@<TRIPOS>MOLECULE
BRD4_6DL2_TargetProtein
117 114 13              
SMALL
USER_CHARGES
@<TRIPOS>ATOM
1	   N	2.844	-0.146	-2.281	N.am	1	TRP81	0.000	
2	  CA	2.660	1.209	-2.747	C.3	1	TRP81	0.000	
3	   C	3.948	2.067	-2.772	C.2	1	TRP81	0.000	
4	   O	4.078	2.806	-3.749	O.2	1	TRP81	0.000	
5	  CB	1.500	1.923	-2.003	C.3	1	TRP81	0.000	
6	  CG	1.739	2.175	-0.555	C.2	1	TRP81	0.000	
7	 CD1	1.397	1.367	0.492	C.2	1	TRP81	0.000	
8	 CD2	2.407	3.301	0.006	C.2	1	TRP81	0.000	
9	 CE2	2.473	3.098	1.401	C.2	1	TRP81	0.000	
10	 CE3	2.990	4.456	-0.541	C.2	1	TRP81	0.000	
11	 NE1	1.846	1.909	1.669	N.pl3	1	TRP81	0.000	
12	 CZ2	3.071	4.022	2.259	C.2	1	TRP81	0.000	
13	 CZ3	3.606	5.357	0.307	C.2	1	TRP81	0.000	
14	 CH2	3.643	5.138	1.689	C.2	1	TRP81	0.000	
15	   N	4.934	2.016	-1.825	N.am	2	PRO82	0.000	
16	  CA	6.111	2.898	-1.984	C.3	2	PRO82	0.000	
17	   C	7.003	2.523	-3.157	C.2	2	PRO82	0.000	
18	   O	7.854	3.309	-3.572	O.2	2	PRO82	0.000	
19	  CB	6.905	2.676	-0.696	C.3	2	PRO82	0.000	
20	  CG	5.870	2.151	0.300	C.3	2	PRO82	0.000	
21	  CD	5.016	1.267	-0.552	C.3	2	PRO82	0.000	
22	   N	6.808	1.305	-3.663	N.am	3	PHE83	0.000	
23	  CA	7.618	0.712	-4.727	C.3	3	PHE83	0.000	
24	   C	6.908	0.688	-6.065	C.2	3	PHE83	0.000	
25	   O	7.452	0.163	-7.023	O.2	3	PHE83	0.000	
26	  CB	8.022	-0.716	-4.312	C.3	3	PHE83	0.000	
27	  CG	8.690	-0.769	-2.960	C.2	3	PHE83	0.000	
28	 CD1	10.046	-0.489	-2.822	C.2	3	PHE83	0.000	
29	 CD2	7.956	-1.066	-1.815	C.2	3	PHE83	0.000	
30	 CE1	10.654	-0.496	-1.556	C.2	3	PHE83	0.000	
31	 CE2	8.561	-1.066	-0.554	C.2	3	PHE83	0.000	
32	  CZ	9.899	-0.758	-0.429	C.2	3	PHE83	0.000	
33	   N	11.314	6.530	-6.936	N.am	4	VAL87	0.000	
34	  CA	11.449	7.363	-5.750	C.3	4	VAL87	0.000	
35	   C	11.445	8.831	-6.199	C.2	4	VAL87	0.000	
36	   O	12.264	9.251	-7.031	O.2	4	VAL87	0.000	
37	  CB	12.730	7.034	-4.955	C.3	4	VAL87	0.000	
38	 CG1	13.014	8.112	-3.897	C.3	4	VAL87	0.000	
39	 CG2	12.622	5.662	-4.300	C.3	4	VAL87	0.000	
40	   N	9.627	13.628	-1.463	N.am	5	LEU92	0.000	
41	  CA	9.905	12.984	-0.187	C.3	5	LEU92	0.000	
42	   C	11.020	13.630	0.661	C.2	5	LEU92	0.000	
43	   O	11.382	13.088	1.711	O.2	5	LEU92	0.000	
44	  CB	10.217	11.495	-0.430	C.3	5	LEU92	0.000	
45	  CG	9.071	10.718	-1.075	C.3	5	LEU92	0.000	
46	 CD1	9.545	9.378	-1.658	C.3	5	LEU92	0.000	
47	 CD2	7.938	10.475	-0.082	C.3	5	LEU92	0.000	
48	   N	14.313	13.827	0.135	N.am	6	LEU94	0.000	
49	  CA	15.454	12.900	0.250	C.3	6	LEU94	0.000	
50	   C	16.487	13.435	-0.735	C.2	6	LEU94	0.000	
51	   O	16.781	12.793	-1.740	O.2	6	LEU94	0.000	
52	  CB	15.023	11.474	-0.146	C.3	6	LEU94	0.000	
53	  CG	13.839	10.859	0.607	C.3	6	LEU94	0.000	
54	 CD1	13.490	9.512	0.032	C.3	6	LEU94	0.000	
55	 CD2	14.121	10.755	2.098	C.3	6	LEU94	0.000	
56	   N	19.232	11.137	-2.093	N.am	7	TYR97	0.000	
57	  CA	18.890	9.820	-2.624	C.3	7	TYR97	0.000	
58	   C	19.647	9.449	-3.890	C.2	7	TYR97	0.000	
59	   O	20.277	8.394	-3.940	O.2	7	TYR97	0.000	
60	  CB	17.376	9.660	-2.822	C.3	7	TYR97	0.000	
61	  CG	16.984	8.246	-3.195	C.2	7	TYR97	0.000	
62	 CD1	16.761	7.275	-2.212	C.2	7	TYR97	0.000	
63	 CD2	16.865	7.863	-4.530	C.2	7	TYR97	0.000	
64	 CE1	16.462	5.953	-2.557	C.2	7	TYR97	0.000	
65	 CE2	16.541	6.557	-4.883	C.2	7	TYR97	0.000	
66	  CZ	16.311	5.613	-3.891	C.2	7	TYR97	0.000	
67	  OH	16.064	4.312	-4.260	O.3	7	TYR97	0.000	
68	   N	16.930	-0.163	-1.629	N.am	8	CYS136	0.000	
69	  CA	16.201	0.182	-0.420	C.3	8	CYS136	0.000	
70	   C	17.049	-0.146	0.810	C.2	8	CYS136	0.000	
71	   O	17.149	0.677	1.724	O.2	8	CYS136	0.000	
72	  CB	14.877	-0.566	-0.397	C.3	8	CYS136	0.000	
73	  SG	13.791	-0.085	0.970	S.3	8	CYS136	0.000	
74	   N	20.153	2.464	0.967	N.am	9	TYR139	0.000	
75	  CA	19.829	3.824	1.341	C.3	9	TYR139	0.000	
76	   C	19.331	3.978	2.767	C.2	9	TYR139	0.000	
77	   O	19.668	4.969	3.434	O.2	9	TYR139	0.000	
78	  CB	18.821	4.431	0.341	C.3	9	TYR139	0.000	
79	  CG	18.527	5.878	0.663	C.2	9	TYR139	0.000	
80	 CD1	19.455	6.879	0.383	C.2	9	TYR139	0.000	
81	 CD2	17.330	6.246	1.276	C.2	9	TYR139	0.000	
82	 CE1	19.214	8.205	0.732	C.2	9	TYR139	0.000	
83	 CE2	17.079	7.569	1.632	C.2	9	TYR139	0.000	
84	  CZ	18.021	8.545	1.351	C.2	9	TYR139	0.000	
85	  OH	17.767	9.850	1.706	O.3	9	TYR139	0.000	
86	   N	18.521	3.017	3.231	N.am	10	ASN140	0.000	
87	  CA	17.836	3.131	4.505	C.3	10	ASN140	0.000	
88	   C	18.498	2.371	5.633	C.2	10	ASN140	0.000	
89	   O	19.325	1.499	5.393	O.2	10	ASN140	0.000	
90	  CB	16.382	2.723	4.332	C.3	10	ASN140	0.000	
91	  CG	15.682	3.563	3.290	C.2	10	ASN140	0.000	
92	 ND2	15.563	3.039	2.075	N.pl3	10	ASN140	0.000	
93	 OD1	15.275	4.699	3.551	O.2	10	ASN140	0.000	
94	   N	10.926	1.298	8.678	N.am	11	ASP145	0.000	
95	  CA	9.675	0.761	8.124	C.3	11	ASP145	0.000	
96	   C	9.784	0.398	6.645	C.2	11	ASP145	0.000	
97	   O	9.292	-0.649	6.241	O.2	11	ASP145	0.000	
98	  CB	8.512	1.728	8.303	C.3	11	ASP145	0.000	
99	  CG	8.118	1.952	9.738	C.2	11	ASP145	0.000	
100	 OD1	8.370	1.042	10.582	O.co2	11	ASP145	0.000	
101	 OD2	7.564	3.023	10.028	O.co2	11	ASP145	0.000	
102	   N	10.426	1.259	5.833	N.am	12	ILE146	0.000	
103	  CA	10.529	0.992	4.407	C.3	12	ILE146	0.000	
104	   C	11.319	-0.291	4.125	C.2	12	ILE146	0.000	
105	   O	10.985	-1.020	3.190	O.2	12	ILE146	0.000	
106	  CB	11.067	2.220	3.640	C.3	12	ILE146	0.000	
107	 CG1	10.802	2.090	2.127	C.3	12	ILE146	0.000	
108	 CG2	12.557	2.473	3.936	C.3	12	ILE146	0.000	
109	 CD1	9.395	2.244	1.734	C.3	12	ILE146	0.000	
110	   N	9.126	-3.247	4.808	N.am	13	MET149	0.000	
111	  CA	8.196	-3.391	3.700	C.3	13	MET149	0.000	
112	   C	8.883	-4.053	2.504	C.2	13	MET149	0.000	
113	   O	8.333	-4.999	1.920	O.2	13	MET149	0.000	
114	  CB	7.634	-2.033	3.314	C.3	13	MET149	0.000	
115	  CG	6.822	-1.430	4.454	C.3	13	MET149	0.000	
116	  SD	6.355	0.262	4.138	S.3	13	MET149	0.000	
117	  CE	5.242	0.002	3.159	C.3	13	MET149	0.000	
@<TRIPOS>BOND
1 1 2 1
2 2 3 1
3 2 5 1
4 3 4 2
5 3 15 1
6 5 6 1
7 6 7 2
8 6 8 1
9 7 11 1
10 8 9 2
11 8 10 1
12 9 12 1
13 10 13 2
14 9 11 1
15 12 14 2
16 13 14 1
17 15 16 1
18 15 21 1
19 16 17 1
20 16 19 1
21 17 18 2
22 17 22 1
23 19 20 1
24 20 21 1
25 22 23 1
26 23 24 1
27 23 26 1
28 24 25 2
29 26 27 1
30 27 28 2
31 27 29 1
32 28 30 1
33 29 31 2
34 30 32 2
35 31 32 1
36 33 34 1
37 34 35 1
38 34 37 1
39 35 36 2
40 37 38 1
41 37 39 1
42 40 41 1
43 41 42 1
44 41 44 1
45 42 43 2
46 44 45 1
47 45 46 1
48 45 47 1
49 48 49 1
50 49 50 1
51 49 52 1
52 50 51 2
53 52 53 1
54 53 54 1
55 53 55 1
56 56 57 1
57 57 58 1
58 57 60 1
59 58 59 2
60 60 61 1
61 61 62 2
62 61 63 1
63 62 64 1
64 63 65 2
65 64 66 2
66 65 66 1
67 66 67 1
68 68 69 1
69 69 70 1
70 69 72 1
71 70 71 2
72 72 73 1
73 74 75 1
74 75 76 1
75 75 78 1
76 76 77 2
77 76 86 1
78 78 79 1
79 79 80 2
80 79 81 1
81 80 82 1
82 81 83 2
83 82 84 2
84 83 84 1
85 84 85 1
86 86 87 1
87 87 88 1
88 87 90 1
89 88 89 2
90 90 91 1
91 91 92 1
92 91 93 2
93 94 95 1
94 95 96 1
95 95 98 1
96 96 97 2
97 96 102 1
98 98 99 1
99 99 100 2
100 99 101 1
101 102 103 1
102 103 104 1
103 103 106 1
104 104 105 2
105 106 107 1
106 106 108 1
107 107 109 1
108 110 111 1
109 111 112 1
110 111 114 1
111 112 113 2
112 114 115 1
113 115 116 1
114 116 117 1
@<TRIPOS>SUBSTRUCTURE
1	TRP81	1	RESIDUE	1 B	TRP
2	PRO82	15	RESIDUE	1 B	PRO
3	PHE83	22	RESIDUE	1 B	PHE
4	VAL87	33	RESIDUE	1 B	VAL
5	LEU92	40	RESIDUE	1 B	LEU
6	LEU94	48	RESIDUE	1 B	LEU
7	TYR97	56	RESIDUE	1 B	TYR
8	CYS136	68	RESIDUE	1 B	CYS
9	TYR139	74	RESIDUE	1 B	TYR
10	ASN140	86	RESIDUE	1 B	ASN
11	ASP145	94	RESIDUE	1 B	ASP
12	ILE146	102	RESIDUE	1 B	ILE
13	MET149	110	RESIDUE	1 B	MET
