# created with PyMOL 2.5.2
@<TRIPOS>MOLECULE
BRD4_6DL2_TargetProtein
106 102 12              
SMALL
USER_CHARGES
@<TRIPOS>ATOM
1	   N	2.844	-0.146	-2.281	N.am	1	TRP81	0.000	
2	  CA	2.660	1.209	-2.747	C.3	1	TRP81	0.000	
3	   C	3.948	2.067	-2.772	C.2	1	TRP81	0.000	
4	   O	4.078	2.806	-3.749	O.2	1	TRP81	0.000	
5	  CB	1.500	1.923	-2.003	C.3	1	TRP81	0.000	
6	  CG	1.739	2.175	-0.555	C.2	1	TRP81	0.000	
7	 CD1	1.397	1.367	0.492	C.2	1	TRP81	0.000	
8	 CD2	2.407	3.301	0.006	C.2	1	TRP81	0.000	
9	 CE2	2.473	3.098	1.401	C.2	1	TRP81	0.000	
10	 CE3	2.990	4.456	-0.541	C.2	1	TRP81	0.000	
11	 NE1	1.846	1.909	1.669	N.pl3	1	TRP81	0.000	
12	 CZ2	3.071	4.022	2.259	C.2	1	TRP81	0.000	
13	 CZ3	3.606	5.357	0.307	C.2	1	TRP81	0.000	
14	 CH2	3.643	5.138	1.689	C.2	1	TRP81	0.000	
15	   N	4.934	2.016	-1.825	N.am	2	PRO82	0.000	
16	  CA	6.111	2.898	-1.984	C.3	2	PRO82	0.000	
17	   C	7.003	2.523	-3.157	C.2	2	PRO82	0.000	
18	   O	7.854	3.309	-3.572	O.2	2	PRO82	0.000	
19	  CB	6.905	2.676	-0.696	C.3	2	PRO82	0.000	
20	  CG	5.870	2.151	0.300	C.3	2	PRO82	0.000	
21	  CD	5.016	1.267	-0.552	C.3	2	PRO82	0.000	
22	   N	11.314	6.530	-6.936	N.am	3	VAL87	0.000	
23	  CA	11.449	7.363	-5.750	C.3	3	VAL87	0.000	
24	   C	11.445	8.831	-6.199	C.2	3	VAL87	0.000	
25	   O	12.264	9.251	-7.031	O.2	3	VAL87	0.000	
26	  CB	12.730	7.034	-4.955	C.3	3	VAL87	0.000	
27	 CG1	13.014	8.112	-3.897	C.3	3	VAL87	0.000	
28	 CG2	12.622	5.662	-4.300	C.3	3	VAL87	0.000	
29	   N	9.627	13.628	-1.463	N.am	4	LEU92	0.000	
30	  CA	9.905	12.984	-0.187	C.3	4	LEU92	0.000	
31	   C	11.020	13.630	0.661	C.2	4	LEU92	0.000	
32	   O	11.382	13.088	1.711	O.2	4	LEU92	0.000	
33	  CB	10.217	11.495	-0.430	C.3	4	LEU92	0.000	
34	  CG	9.071	10.718	-1.075	C.3	4	LEU92	0.000	
35	 CD1	9.545	9.378	-1.658	C.3	4	LEU92	0.000	
36	 CD2	7.938	10.475	-0.082	C.3	4	LEU92	0.000	
37	   N	14.313	13.827	0.135	N.am	5	LEU94	0.000	
38	  CA	15.454	12.900	0.250	C.3	5	LEU94	0.000	
39	   C	16.487	13.435	-0.735	C.2	5	LEU94	0.000	
40	   O	16.781	12.793	-1.740	O.2	5	LEU94	0.000	
41	  CB	15.023	11.474	-0.146	C.3	5	LEU94	0.000	
42	  CG	13.839	10.859	0.607	C.3	5	LEU94	0.000	
43	 CD1	13.490	9.512	0.032	C.3	5	LEU94	0.000	
44	 CD2	14.121	10.755	2.098	C.3	5	LEU94	0.000	
45	   N	19.232	11.137	-2.093	N.am	6	TYR97	0.000	
46	  CA	18.890	9.820	-2.624	C.3	6	TYR97	0.000	
47	   C	19.647	9.449	-3.890	C.2	6	TYR97	0.000	
48	   O	20.277	8.394	-3.940	O.2	6	TYR97	0.000	
49	  CB	17.376	9.660	-2.822	C.3	6	TYR97	0.000	
50	  CG	16.984	8.246	-3.195	C.2	6	TYR97	0.000	
51	 CD1	16.761	7.275	-2.212	C.2	6	TYR97	0.000	
52	 CD2	16.865	7.863	-4.530	C.2	6	TYR97	0.000	
53	 CE1	16.462	5.953	-2.557	C.2	6	TYR97	0.000	
54	 CE2	16.541	6.557	-4.883	C.2	6	TYR97	0.000	
55	  CZ	16.311	5.613	-3.891	C.2	6	TYR97	0.000	
56	  OH	16.064	4.312	-4.260	O.3	6	TYR97	0.000	
57	   N	16.930	-0.163	-1.629	N.am	7	CYS136	0.000	
58	  CA	16.201	0.182	-0.420	C.3	7	CYS136	0.000	
59	   C	17.049	-0.146	0.810	C.2	7	CYS136	0.000	
60	   O	17.149	0.677	1.724	O.2	7	CYS136	0.000	
61	  CB	14.877	-0.566	-0.397	C.3	7	CYS136	0.000	
62	  SG	13.791	-0.085	0.970	S.3	7	CYS136	0.000	
63	   N	20.153	2.464	0.967	N.am	8	TYR139	0.000	
64	  CA	19.829	3.824	1.341	C.3	8	TYR139	0.000	
65	   C	19.331	3.978	2.767	C.2	8	TYR139	0.000	
66	   O	19.668	4.969	3.434	O.2	8	TYR139	0.000	
67	  CB	18.821	4.431	0.341	C.3	8	TYR139	0.000	
68	  CG	18.527	5.878	0.663	C.2	8	TYR139	0.000	
69	 CD1	19.455	6.879	0.383	C.2	8	TYR139	0.000	
70	 CD2	17.330	6.246	1.276	C.2	8	TYR139	0.000	
71	 CE1	19.214	8.205	0.732	C.2	8	TYR139	0.000	
72	 CE2	17.079	7.569	1.632	C.2	8	TYR139	0.000	
73	  CZ	18.021	8.545	1.351	C.2	8	TYR139	0.000	
74	  OH	17.767	9.850	1.706	O.3	8	TYR139	0.000	
75	   N	18.521	3.017	3.231	N.am	9	ASN140	0.000	
76	  CA	17.836	3.131	4.505	C.3	9	ASN140	0.000	
77	   C	18.498	2.371	5.633	C.2	9	ASN140	0.000	
78	   O	19.325	1.499	5.393	O.2	9	ASN140	0.000	
79	  CB	16.382	2.723	4.332	C.3	9	ASN140	0.000	
80	  CG	15.682	3.563	3.290	C.2	9	ASN140	0.000	
81	 ND2	15.563	3.039	2.075	N.pl3	9	ASN140	0.000	
82	 OD1	15.275	4.699	3.551	O.2	9	ASN140	0.000	
83	   N	10.926	1.298	8.678	N.am	10	ASP145	0.000	
84	  CA	9.675	0.761	8.124	C.3	10	ASP145	0.000	
85	   C	9.784	0.398	6.645	C.2	10	ASP145	0.000	
86	   O	9.292	-0.649	6.241	O.2	10	ASP145	0.000	
87	  CB	8.512	1.728	8.303	C.3	10	ASP145	0.000	
88	  CG	8.118	1.952	9.738	C.2	10	ASP145	0.000	
89	 OD1	8.370	1.042	10.582	O.co2	10	ASP145	0.000	
90	 OD2	7.564	3.023	10.028	O.co2	10	ASP145	0.000	
91	   N	10.426	1.259	5.833	N.am	11	ILE146	0.000	
92	  CA	10.529	0.992	4.407	C.3	11	ILE146	0.000	
93	   C	11.319	-0.291	4.125	C.2	11	ILE146	0.000	
94	   O	10.985	-1.020	3.190	O.2	11	ILE146	0.000	
95	  CB	11.067	2.220	3.640	C.3	11	ILE146	0.000	
96	 CG1	10.802	2.090	2.127	C.3	11	ILE146	0.000	
97	 CG2	12.557	2.473	3.936	C.3	11	ILE146	0.000	
98	 CD1	9.395	2.244	1.734	C.3	11	ILE146	0.000	
99	   N	9.126	-3.247	4.808	N.am	12	MET149	0.000	
100	  CA	8.196	-3.391	3.700	C.3	12	MET149	0.000	
101	   C	8.883	-4.053	2.504	C.2	12	MET149	0.000	
102	   O	8.333	-4.999	1.920	O.2	12	MET149	0.000	
103	  CB	7.634	-2.033	3.314	C.3	12	MET149	0.000	
104	  CG	6.822	-1.430	4.454	C.3	12	MET149	0.000	
105	  SD	6.355	0.262	4.138	S.3	12	MET149	0.000	
106	  CE	5.242	0.002	3.159	C.3	12	MET149	0.000	
@<TRIPOS>BOND
1 1 2 1
2 2 3 1
3 2 5 1
4 3 4 2
5 3 15 1
6 5 6 1
7 6 7 2
8 6 8 1
9 7 11 1
10 8 9 2
11 8 10 1
12 9 12 1
13 10 13 2
14 9 11 1
15 12 14 2
16 13 14 1
17 15 16 1
18 15 21 1
19 16 17 1
20 16 19 1
21 17 18 2
22 19 20 1
23 20 21 1
24 22 23 1
25 23 24 1
26 23 26 1
27 24 25 2
28 26 27 1
29 26 28 1
30 29 30 1
31 30 31 1
32 30 33 1
33 31 32 2
34 33 34 1
35 34 35 1
36 34 36 1
37 37 38 1
38 38 39 1
39 38 41 1
40 39 40 2
41 41 42 1
42 42 43 1
43 42 44 1
44 45 46 1
45 46 47 1
46 46 49 1
47 47 48 2
48 49 50 1
49 50 51 2
50 50 52 1
51 51 53 1
52 52 54 2
53 53 55 2
54 54 55 1
55 55 56 1
56 57 58 1
57 58 59 1
58 58 61 1
59 59 60 2
60 61 62 1
61 63 64 1
62 64 65 1
63 64 67 1
64 65 66 2
65 65 75 1
66 67 68 1
67 68 69 2
68 68 70 1
69 69 71 1
70 70 72 2
71 71 73 2
72 72 73 1
73 73 74 1
74 75 76 1
75 76 77 1
76 76 79 1
77 77 78 2
78 79 80 1
79 80 81 1
80 80 82 2
81 83 84 1
82 84 85 1
83 84 87 1
84 85 86 2
85 85 91 1
86 87 88 1
87 88 89 2
88 88 90 1
89 91 92 1
90 92 93 1
91 92 95 1
92 93 94 2
93 95 96 1
94 95 97 1
95 96 98 1
96 99 100 1
97 100 101 1
98 100 103 1
99 101 102 2
100 103 104 1
101 104 105 1
102 105 106 1
@<TRIPOS>SUBSTRUCTURE
1	TRP81	1	RESIDUE	1 B	TRP
2	PRO82	15	RESIDUE	1 B	PRO
3	VAL87	22	RESIDUE	1 B	VAL
4	LEU92	29	RESIDUE	1 B	LEU
5	LEU94	37	RESIDUE	1 B	LEU
6	TYR97	45	RESIDUE	1 B	TYR
7	CYS136	57	RESIDUE	1 B	CYS
8	TYR139	63	RESIDUE	1 B	TYR
9	ASN140	75	RESIDUE	1 B	ASN
10	ASP145	83	RESIDUE	1 B	ASP
11	ILE146	91	RESIDUE	1 B	ILE
12	MET149	99	RESIDUE	1 B	MET
