# created with PyMOL 2.5.2
@<TRIPOS>MOLECULE
FLT3_5X02_TargetProtein
171 165 21              
SMALL
USER_CHARGES
@<TRIPOS>ATOM
1	   N	-34.995	7.749	-8.855	N.am	1	LEU616	0.000	
2	  CA	-33.612	8.199	-8.915	C.3	1	LEU616	0.000	
3	   C	-33.057	8.012	-10.322	C.2	1	LEU616	0.000	
4	   O	-32.108	8.682	-10.725	O.2	1	LEU616	0.000	
5	  CB	-32.751	7.432	-7.910	C.3	1	LEU616	0.000	
6	  CG	-33.166	7.485	-6.441	C.3	1	LEU616	0.000	
7	 CD1	-32.313	6.531	-5.624	C.3	1	LEU616	0.000	
8	 CD2	-33.051	8.898	-5.900	C.3	1	LEU616	0.000	
9	   N	-33.651	7.086	-11.062	N.am	2	GLY617	0.000	
10	  CA	-33.211	6.788	-12.411	C.3	2	GLY617	0.000	
11	   C	-34.235	5.921	-13.107	C.2	2	GLY617	0.000	
12	   O	-34.970	5.181	-12.457	O.2	2	GLY617	0.000	
13	   N	-34.827	2.546	-10.737	N.am	3	VAL624	0.000	
14	  CA	-34.391	2.568	-9.351	C.3	3	VAL624	0.000	
15	   C	-35.065	3.735	-8.645	C.2	3	VAL624	0.000	
16	   O	-35.050	4.860	-9.144	O.2	3	VAL624	0.000	
17	  CB	-32.868	2.695	-9.227	C.3	3	VAL624	0.000	
18	 CG1	-32.468	2.831	-7.770	C.3	3	VAL624	0.000	
19	 CG2	-32.191	1.494	-9.851	C.3	3	VAL624	0.000	
20	   N	-32.005	2.244	-2.121	N.am	4	ALA642	0.000	
21	  CA	-32.372	2.339	-3.526	C.3	4	ALA642	0.000	
22	   C	-32.973	1.015	-3.966	C.2	4	ALA642	0.000	
23	   O	-32.363	-0.037	-3.795	O.2	4	ALA642	0.000	
24	  CB	-31.167	2.698	-4.374	C.3	4	ALA642	0.000	
25	   N	-34.328	-1.313	-6.899	N.am	5	LYS644	0.000	
26	  CA	-34.430	-1.650	-8.314	C.3	5	LYS644	0.000	
27	   C	-35.657	-2.517	-8.569	C.2	5	LYS644	0.000	
28	   O	-35.832	-3.558	-7.943	O.2	5	LYS644	0.000	
29	  CB	-33.165	-2.363	-8.780	C.3	5	LYS644	0.000	
30	  CG	-33.105	-2.651	-10.267	C.3	5	LYS644	0.000	
31	  CD	-31.654	-2.697	-10.708	C.3	5	LYS644	0.000	
32	  CE	-31.401	-3.746	-11.768	C.3	5	LYS644	0.000	
33	  NZ	-29.951	-3.796	-12.104	N.4	5	LYS644	0.000	
34	   N	-30.363	-11.976	-11.453	N.am	6	GLU661	0.000	
35	  CA	-29.462	-10.943	-10.974	C.3	6	GLU661	0.000	
36	   C	-29.452	-10.938	-9.452	C.2	6	GLU661	0.000	
37	   O	-28.399	-10.827	-8.823	O.2	6	GLU661	0.000	
38	  CB	-29.881	-9.576	-11.514	C.3	6	GLU661	0.000	
39	  CG	-29.023	-8.426	-11.021	C.3	6	GLU661	0.000	
40	  CD	-29.593	-7.073	-11.401	C.2	6	GLU661	0.000	
41	 OE1	-29.146	-6.067	-10.818	O.co2	6	GLU661	0.000	
42	 OE2	-30.486	-7.016	-12.278	O.co2	6	GLU661	0.000	
43	   N	-21.904	-1.509	-4.659	N.am	7	VAL675	0.000	
44	  CA	-23.272	-1.240	-4.237	C.3	7	VAL675	0.000	
45	   C	-23.904	-2.561	-3.821	C.2	7	VAL675	0.000	
46	   O	-24.232	-3.400	-4.661	O.2	7	VAL675	0.000	
47	  CB	-24.106	-0.574	-5.341	C.3	7	VAL675	0.000	
48	 CG1	-25.546	-0.401	-4.880	C.3	7	VAL675	0.000	
49	 CG2	-23.501	0.771	-5.720	C.3	7	VAL675	0.000	
50	   N	-31.036	-2.149	-2.718	N.am	8	PHE691	0.000	
51	  CA	-29.608	-1.854	-2.634	C.3	8	PHE691	0.000	
52	   C	-29.322	-0.640	-1.755	C.2	8	PHE691	0.000	
53	   O	-30.227	0.116	-1.399	O.2	8	PHE691	0.000	
54	  CB	-29.023	-1.599	-4.021	C.3	8	PHE691	0.000	
55	  CG	-29.150	-2.756	-4.968	C.2	8	PHE691	0.000	
56	 CD1	-30.274	-2.891	-5.763	C.2	8	PHE691	0.000	
57	 CD2	-28.128	-3.685	-5.094	C.2	8	PHE691	0.000	
58	 CE1	-30.389	-3.940	-6.652	C.2	8	PHE691	0.000	
59	 CE2	-28.239	-4.740	-5.977	C.2	8	PHE691	0.000	
60	  CZ	-29.372	-4.867	-6.758	C.2	8	PHE691	0.000	
61	   N	-28.046	-0.451	-1.435	N.am	9	GLU692	0.000	
62	  CA	-27.595	0.710	-0.684	C.3	9	GLU692	0.000	
63	   C	-27.991	2.015	-1.369	C.2	9	GLU692	0.000	
64	   O	-28.083	2.080	-2.596	O.2	9	GLU692	0.000	
65	  CB	-26.078	0.665	-0.502	C.3	9	GLU692	0.000	
66	  CG	-25.593	-0.520	0.294	C.3	9	GLU692	0.000	
67	  CD	-24.087	-0.652	0.283	C.2	9	GLU692	0.000	
68	 OE1	-23.498	-0.847	1.366	O.co2	9	GLU692	0.000	
69	 OE2	-23.487	-0.566	-0.807	O.co2	9	GLU692	0.000	
70	   N	-28.236	3.049	-0.567	N.am	10	TYR693	0.000	
71	  CA	-28.484	4.385	-1.096	C.3	10	TYR693	0.000	
72	   C	-27.180	5.161	-1.120	C.2	10	TYR693	0.000	
73	   O	-26.412	5.132	-0.157	O.2	10	TYR693	0.000	
74	  CB	-29.535	5.122	-0.264	C.3	10	TYR693	0.000	
75	  CG	-29.854	6.511	-0.768	C.2	10	TYR693	0.000	
76	 CD1	-30.560	6.695	-1.949	C.2	10	TYR693	0.000	
77	 CD2	-29.455	7.638	-0.060	C.2	10	TYR693	0.000	
78	 CE1	-30.854	7.964	-2.415	C.2	10	TYR693	0.000	
79	 CE2	-29.747	8.911	-0.515	C.2	10	TYR693	0.000	
80	  CZ	-30.445	9.071	-1.695	C.2	10	TYR693	0.000	
81	  OH	-30.735	10.343	-2.154	O.3	10	TYR693	0.000	
82	   N	-26.915	5.838	-2.229	N.am	11	CYS694	0.000	
83	  CA	-25.680	6.595	-2.356	C.3	11	CYS694	0.000	
84	   C	-25.986	8.074	-2.561	C.2	11	CYS694	0.000	
85	   O	-26.209	8.532	-3.682	O.2	11	CYS694	0.000	
86	  CB	-24.829	6.028	-3.490	C.3	11	CYS694	0.000	
87	  SG	-24.238	4.330	-3.156	S.3	11	CYS694	0.000	
88	   N	-25.978	8.823	-1.461	N.am	12	CYS695	0.000	
89	  CA	-26.628	10.133	-1.439	C.3	12	CYS695	0.000	
90	   C	-25.943	11.185	-2.306	C.2	12	CYS695	0.000	
91	   O	-26.533	12.223	-2.576	O.2	12	CYS695	0.000	
92	  CB	-26.726	10.678	-0.009	C.3	12	CYS695	0.000	
93	  SG	-25.145	11.165	0.762	S.3	12	CYS695	0.000	
94	   N	-24.709	10.936	-2.730	N.am	13	TYR696	0.000	
95	  CA	-24.011	11.897	-3.576	C.3	13	TYR696	0.000	
96	   C	-24.143	11.574	-5.067	C.2	13	TYR696	0.000	
97	   O	-23.536	12.239	-5.899	O.2	13	TYR696	0.000	
98	  CB	-22.534	11.978	-3.186	C.3	13	TYR696	0.000	
99	  CG	-22.292	12.674	-1.863	C.2	13	TYR696	0.000	
100	 CD1	-22.738	13.972	-1.650	C.2	13	TYR696	0.000	
101	 CD2	-21.604	12.040	-0.834	C.2	13	TYR696	0.000	
102	 CE1	-22.517	14.616	-0.445	C.2	13	TYR696	0.000	
103	 CE2	-21.376	12.678	0.375	C.2	13	TYR696	0.000	
104	  CZ	-21.834	13.965	0.562	C.2	13	TYR696	0.000	
105	  OH	-21.611	14.601	1.762	O.3	13	TYR696	0.000	
106	   N	-24.942	10.563	-5.403	N.am	14	GLY697	0.000	
107	  CA	-25.179	10.201	-6.794	C.3	14	GLY697	0.000	
108	   C	-23.977	9.606	-7.514	C.2	14	GLY697	0.000	
109	   O	-22.986	9.222	-6.887	O.2	14	GLY697	0.000	
110	   N	-24.056	9.541	-8.841	N.am	15	ASP698	0.000	
111	  CA	-23.020	8.880	-9.629	C.3	15	ASP698	0.000	
112	   C	-21.739	9.696	-9.673	C.2	15	ASP698	0.000	
113	   O	-21.766	10.916	-9.552	O.2	15	ASP698	0.000	
114	  CB	-23.519	8.601	-11.046	C.3	15	ASP698	0.000	
115	  CG	-23.699	9.859	-11.861	C.2	15	ASP698	0.000	
116	 OD1	-24.787	10.469	-11.800	O.co2	15	ASP698	0.000	
117	 OD2	-22.751	10.223	-12.582	O.co2	15	ASP698	0.000	
118	   N	-19.956	6.690	-14.801	N.am	16	ARG815	0.000	
119	  CA	-21.406	6.797	-14.628	C.3	16	ARG815	0.000	
120	   C	-21.998	5.633	-13.820	C.2	16	ARG815	0.000	
121	   O	-23.091	5.759	-13.268	O.2	16	ARG815	0.000	
122	  CB	-22.107	6.879	-15.990	C.3	16	ARG815	0.000	
123	  CG	-21.856	5.670	-16.882	C.3	16	ARG815	0.000	
124	  CD	-22.597	5.736	-18.211	C.3	16	ARG815	0.000	
125	  NE	-22.232	4.600	-19.049	N.pl3	16	ARG815	0.000	
126	  CZ	-21.169	4.574	-19.849	C.cat	16	ARG815	0.000	
127	 NH1	-20.895	3.493	-20.568	N.pl3	16	ARG815	0.000	
128	 NH2	-20.381	5.632	-19.942	N.pl3	16	ARG815	0.000	
129	   N	-21.043	4.942	-7.927	N.am	17	LEU818	0.000	
130	  CA	-21.819	5.818	-7.059	C.3	17	LEU818	0.000	
131	   C	-20.958	6.369	-5.924	C.2	17	LEU818	0.000	
132	   O	-19.874	5.853	-5.658	O.2	17	LEU818	0.000	
133	  CB	-23.025	5.074	-6.498	C.3	17	LEU818	0.000	
134	  CG	-24.000	4.534	-7.541	C.3	17	LEU818	0.000	
135	 CD1	-25.227	3.960	-6.864	C.3	17	LEU818	0.000	
136	 CD2	-24.391	5.620	-8.533	C.3	17	LEU818	0.000	
137	   N	-21.065	8.588	1.796	N.am	18	HIS821	0.000	
138	  CA	-20.364	9.174	2.933	C.3	18	HIS821	0.000	
139	   C	-18.867	8.899	2.884	C.2	18	HIS821	0.000	
140	   O	-18.434	7.871	2.360	O.2	18	HIS821	0.000	
141	  CB	-20.942	8.624	4.241	C.3	18	HIS821	0.000	
142	  CG	-22.428	8.529	4.247	C.2	18	HIS821	0.000	
143	 CD2	-23.263	7.451	4.353	C.2	18	HIS821	0.000	
144	 ND1	-23.253	9.622	4.125	N.pl3	18	HIS821	0.000	
145	 CE1	-24.522	9.239	4.160	C.2	18	HIS821	0.000	
146	 NE2	-24.537	7.919	4.298	N.pl3	18	HIS821	0.000	
147	   N	-21.306	-0.060	-9.371	N.am	19	CYS828	0.000	
148	  CA	-22.695	-0.412	-9.539	C.3	19	CYS828	0.000	
149	   C	-22.943	-0.986	-10.920	C.2	19	CYS828	0.000	
150	   O	-22.048	-1.019	-11.764	O.2	19	CYS828	0.000	
151	  CB	-23.582	0.815	-9.319	C.3	19	CYS828	0.000	
152	  SG	-25.328	0.439	-9.425	S.3	19	CYS828	0.000	
153	   N	-24.169	-1.433	-11.146	N.am	20	ASP829	0.000	
154	  CA	-24.590	-1.813	-12.482	C.3	20	ASP829	0.000	
155	   C	-26.091	-1.707	-12.642	C.2	20	ASP829	0.000	
156	   O	-26.849	-2.502	-12.085	O.2	20	ASP829	0.000	
157	  CB	-24.147	-3.233	-12.818	C.3	20	ASP829	0.000	
158	  CG	-24.745	-3.727	-14.121	C.2	20	ASP829	0.000	
159	 OD1	-24.853	-2.910	-15.064	O.co2	20	ASP829	0.000	
160	 OD2	-25.110	-4.924	-14.199	O.co2	20	ASP829	0.000	
161	   N	-26.521	-0.722	-13.413	N.am	21	PHE830	0.000	
162	  CA	-27.916	-0.655	-13.801	C.3	21	PHE830	0.000	
163	   C	-27.995	-0.439	-15.300	C.2	21	PHE830	0.000	
164	   O	-27.396	0.491	-15.840	O.2	21	PHE830	0.000	
165	  CB	-28.665	0.444	-13.038	C.3	21	PHE830	0.000	
166	  CG	-27.926	1.754	-12.949	C.2	21	PHE830	0.000	
167	 CD1	-26.932	1.946	-12.000	C.2	21	PHE830	0.000	
168	 CD2	-28.250	2.804	-13.788	C.2	21	PHE830	0.000	
169	 CE1	-26.258	3.152	-11.905	C.2	21	PHE830	0.000	
170	 CE2	-27.584	4.013	-13.694	C.2	21	PHE830	0.000	
171	  CZ	-26.584	4.186	-12.753	C.2	21	PHE830	0.000	
@<TRIPOS>BOND
1 1 2 1
2 2 3 1
3 2 5 1
4 3 4 2
5 3 9 1
6 5 6 1
7 6 7 1
8 6 8 1
9 9 10 1
10 10 11 1
11 11 12 2
12 13 14 1
13 14 15 1
14 14 17 1
15 15 16 2
16 17 18 1
17 17 19 1
18 20 21 1
19 21 22 1
20 21 24 1
21 22 23 2
22 25 26 1
23 26 27 1
24 26 29 1
25 27 28 2
26 29 30 1
27 30 31 1
28 31 32 1
29 32 33 1
30 34 35 1
31 35 36 1
32 35 38 1
33 36 37 2
34 38 39 1
35 39 40 1
36 40 41 2
37 40 42 1
38 43 44 1
39 44 45 1
40 44 47 1
41 45 46 2
42 47 48 1
43 47 49 1
44 50 51 1
45 51 52 1
46 51 54 1
47 52 53 2
48 52 61 1
49 54 55 1
50 55 56 2
51 55 57 1
52 56 58 1
53 57 59 2
54 58 60 2
55 59 60 1
56 61 62 1
57 62 63 1
58 62 65 1
59 63 64 2
60 63 70 1
61 65 66 1
62 66 67 1
63 67 68 2
64 67 69 1
65 70 71 1
66 71 72 1
67 71 74 1
68 72 73 2
69 72 82 1
70 74 75 1
71 75 76 2
72 75 77 1
73 76 78 1
74 77 79 2
75 78 80 2
76 79 80 1
77 80 81 1
78 82 83 1
79 83 84 1
80 83 86 1
81 84 85 2
82 84 88 1
83 86 87 1
84 88 89 1
85 89 90 1
86 89 92 1
87 90 91 2
88 90 94 1
89 92 93 1
90 94 95 1
91 95 96 1
92 95 98 1
93 96 97 2
94 96 106 1
95 98 99 1
96 99 100 2
97 99 101 1
98 100 102 1
99 101 103 2
100 102 104 2
101 103 104 1
102 104 105 1
103 106 107 1
104 107 108 1
105 108 109 2
106 108 110 1
107 110 111 1
108 111 112 1
109 111 114 1
110 112 113 2
111 114 115 1
112 115 116 2
113 115 117 1
114 118 119 1
115 119 120 1
116 119 122 1
117 120 121 2
118 122 123 1
119 123 124 1
120 124 125 1
121 125 126 1
122 126 127 2
123 126 128 1
124 129 130 1
125 130 131 1
126 130 133 1
127 131 132 2
128 133 134 1
129 134 135 1
130 134 136 1
131 137 138 1
132 138 139 1
133 138 141 1
134 139 140 2
135 141 142 1
136 142 143 2
137 142 144 1
138 143 146 1
139 144 145 2
140 145 146 1
141 147 148 1
142 148 149 1
143 148 151 1
144 149 150 2
145 149 153 1
146 151 152 1
147 153 154 1
148 154 155 1
149 154 157 1
150 155 156 2
151 155 161 1
152 157 158 1
153 158 159 2
154 158 160 1
155 161 162 1
156 162 163 1
157 162 165 1
158 163 164 2
159 165 166 1
160 166 167 2
161 166 168 1
162 167 169 1
163 168 170 2
164 169 171 2
165 170 171 1
@<TRIPOS>SUBSTRUCTURE
1	LEU616	1	RESIDUE	1 B	LEU
2	GLY617	9	RESIDUE	1 B	GLY
3	VAL624	13	RESIDUE	1 B	VAL
4	ALA642	20	RESIDUE	1 B	ALA
5	LYS644	25	RESIDUE	1 B	LYS
6	GLU661	34	RESIDUE	1 B	GLU
7	VAL675	43	RESIDUE	1 B	VAL
8	PHE691	50	RESIDUE	1 B	PHE
9	GLU692	61	RESIDUE	1 B	GLU
10	TYR693	70	RESIDUE	1 B	TYR
11	CYS694	82	RESIDUE	1 B	CYS
12	CYS695	88	RESIDUE	1 B	CYS
13	TYR696	94	RESIDUE	1 B	TYR
14	GLY697	106	RESIDUE	1 B	GLY
15	ASP698	110	RESIDUE	1 B	ASP
16	ARG815	118	RESIDUE	1 B	ARG
17	LEU818	129	RESIDUE	1 B	LEU
18	HIS821	137	RESIDUE	1 B	HIS
19	CYS828	147	RESIDUE	1 B	CYS
20	ASP829	153	RESIDUE	1 B	ASP
21	PHE830	161	RESIDUE	1 B	PHE
