# created with PyMOL 2.5.2
@<TRIPOS>MOLECULE
CDK8_5BNJ_TargetProtein
154 144 19              
SMALL
USER_CHARGES
@<TRIPOS>ATOM
1	   N	37.577	63.377	46.399	N.am	1	VAL27	0.000	
2	  CA	38.357	62.143	46.172	C.3	1	VAL27	0.000	
3	   C	37.670	60.863	46.661	C.2	1	VAL27	0.000	
4	   O	38.020	59.774	46.202	O.2	1	VAL27	0.000	
5	  CB	39.789	62.218	46.778	C.3	1	VAL27	0.000	
6	 CG1	40.569	63.353	46.139	C.3	1	VAL27	0.000	
7	 CG2	39.773	62.354	48.313	C.3	1	VAL27	0.000	
8	   N	36.715	60.993	47.585	N.am	2	GLY28	0.000	
9	  CA	35.989	59.842	48.124	C.3	2	GLY28	0.000	
10	   C	34.585	60.174	48.596	C.2	2	GLY28	0.000	
11	   O	34.331	61.271	49.092	O.2	2	GLY28	0.000	
12	   N	30.808	57.187	55.673	N.am	3	TYR32	0.000	
13	  CA	31.500	58.244	56.431	C.3	3	TYR32	0.000	
14	   C	31.123	59.675	56.023	C.2	3	TYR32	0.000	
15	   O	31.053	60.564	56.876	O.2	3	TYR32	0.000	
16	  CB	33.024	58.059	56.327	C.3	3	TYR32	0.000	
17	  CG	33.577	58.103	54.913	C.2	3	TYR32	0.000	
18	 CD1	33.938	59.314	54.317	C.2	3	TYR32	0.000	
19	 CD2	33.746	56.932	54.173	C.2	3	TYR32	0.000	
20	 CE1	34.442	59.359	53.016	C.2	3	TYR32	0.000	
21	 CE2	34.249	56.965	52.870	C.2	3	TYR32	0.000	
22	  CZ	34.597	58.181	52.297	C.2	3	TYR32	0.000	
23	  OH	35.096	58.216	51.015	O.3	3	TYR32	0.000	
24	   N	34.747	63.137	51.278	N.am	4	VAL35	0.000	
25	  CA	36.118	63.611	51.535	C.3	4	VAL35	0.000	
26	   C	36.727	64.283	50.288	C.2	4	VAL35	0.000	
27	   O	36.560	63.791	49.171	O.2	4	VAL35	0.000	
28	  CB	37.039	62.493	52.114	C.3	4	VAL35	0.000	
29	 CG1	37.224	61.333	51.137	C.3	4	VAL35	0.000	
30	 CG2	38.387	63.083	52.536	C.3	4	VAL35	0.000	
31	   N	43.247	66.494	53.678	N.am	5	ALA50	0.000	
32	  CA	42.016	65.714	53.524	C.3	5	ALA50	0.000	
33	   C	40.903	66.387	54.320	C.2	5	ALA50	0.000	
34	   O	40.978	66.476	55.549	O.2	5	ALA50	0.000	
35	  CB	42.214	64.287	53.985	C.3	5	ALA50	0.000	
36	   N	36.935	66.394	55.250	N.am	6	LYS52	0.000	
37	  CA	35.828	65.437	55.360	C.3	6	LYS52	0.000	
38	   C	34.580	66.088	55.960	C.2	6	LYS52	0.000	
39	   O	34.610	66.536	57.108	O.2	6	LYS52	0.000	
40	  CB	36.269	64.271	56.249	C.3	6	LYS52	0.000	
41	  CG	35.192	63.223	56.580	C.3	6	LYS52	0.000	
42	  CD	35.678	62.302	57.686	C.3	6	LYS52	0.000	
43	  CE	34.599	61.355	58.139	C.3	6	LYS52	0.000	
44	  NZ	35.115	60.389	59.143	N.4	6	LYS52	0.000	
45	   N	46.545	58.746	61.802	N.am	7	ILE79	0.000	
46	  CA	46.111	59.981	61.145	C.3	7	ILE79	0.000	
47	   C	45.725	61.042	62.191	C.2	7	ILE79	0.000	
48	   O	45.055	60.727	63.185	O.2	7	ILE79	0.000	
49	  CB	44.952	59.708	60.131	C.3	7	ILE79	0.000	
50	 CG1	44.811	60.862	59.133	C.3	7	ILE79	0.000	
51	 CG2	43.623	59.401	60.843	C.3	7	ILE79	0.000	
52	 CD1	45.794	60.783	57.978	C.3	7	ILE79	0.000	
53	   N	42.205	66.738	57.994	N.am	8	PHE97	0.000	
54	  CA	43.316	65.805	58.225	C.3	8	PHE97	0.000	
55	   C	44.489	66.113	57.306	C.2	8	PHE97	0.000	
56	   O	44.350	66.848	56.328	O.2	8	PHE97	0.000	
57	  CB	42.882	64.366	57.937	C.3	8	PHE97	0.000	
58	  CG	41.706	63.900	58.746	C.2	8	PHE97	0.000	
59	 CD1	41.850	63.617	60.101	C.2	8	PHE97	0.000	
60	 CD2	40.460	63.712	58.150	C.2	8	PHE97	0.000	
61	 CE1	40.772	63.170	60.857	C.2	8	PHE97	0.000	
62	 CE2	39.370	63.265	58.900	C.2	8	PHE97	0.000	
63	  CZ	39.528	62.994	60.259	C.2	8	PHE97	0.000	
64	   N	45.640	65.521	57.618	N.am	9	ASP98	0.000	
65	  CA	46.766	65.474	56.681	C.3	9	ASP98	0.000	
66	   C	46.373	64.592	55.496	C.2	9	ASP98	0.000	
67	   O	45.742	63.557	55.682	O.2	9	ASP98	0.000	
68	  CB	48.013	64.889	57.348	C.3	9	ASP98	0.000	
69	  CG	48.532	65.750	58.489	C.2	9	ASP98	0.000	
70	 OD1	48.582	65.244	59.635	O.co2	9	ASP98	0.000	
71	 OD2	48.880	66.929	58.241	O.co2	9	ASP98	0.000	
72	   N	46.738	65.008	54.287	N.am	10	TYR99	0.000	
73	  CA	46.380	64.275	53.072	C.3	10	TYR99	0.000	
74	   C	47.367	63.143	52.807	C.2	10	TYR99	0.000	
75	   O	48.576	63.365	52.816	O.2	10	TYR99	0.000	
76	  CB	46.349	65.213	51.866	C.3	10	TYR99	0.000	
77	  CG	45.976	64.519	50.578	C.2	10	TYR99	0.000	
78	 CD1	44.665	64.094	50.343	C.2	10	TYR99	0.000	
79	 CD2	46.937	64.264	49.597	C.2	10	TYR99	0.000	
80	 CE1	44.321	63.439	49.157	C.2	10	TYR99	0.000	
81	 CE2	46.605	63.614	48.414	C.2	10	TYR99	0.000	
82	  CZ	45.299	63.204	48.197	C.2	10	TYR99	0.000	
83	  OH	44.982	62.566	47.020	O.3	10	TYR99	0.000	
84	   N	46.838	61.944	52.555	N.am	11	ALA100	0.000	
85	  CA	47.638	60.770	52.194	C.3	11	ALA100	0.000	
86	   C	47.330	60.364	50.750	C.2	11	ALA100	0.000	
87	   O	46.203	59.994	50.441	O.2	11	ALA100	0.000	
88	  CB	47.335	59.625	53.142	C.3	11	ALA100	0.000	
89	   N	47.249	54.237	49.516	N.am	12	ASP103	0.000	
90	  CA	46.825	53.244	50.506	C.3	12	ASP103	0.000	
91	   C	47.193	51.831	50.056	C.2	12	ASP103	0.000	
92	   O	47.481	51.608	48.878	O.2	12	ASP103	0.000	
93	  CB	45.320	53.358	50.799	C.3	12	ASP103	0.000	
94	  CG	44.448	53.227	49.551	C.2	12	ASP103	0.000	
95	 OD1	43.583	54.101	49.349	O.co2	12	ASP103	0.000	
96	 OD2	44.597	52.250	48.786	O.co2	12	ASP103	0.000	
97	   N	45.089	50.195	47.002	N.am	13	HIS106	0.000	
98	  CA	45.568	50.591	45.668	C.3	13	HIS106	0.000	
99	   C	46.961	50.058	45.352	C.2	13	HIS106	0.000	
100	   O	47.191	49.577	44.244	O.2	13	HIS106	0.000	
101	  CB	45.552	52.109	45.501	C.3	13	HIS106	0.000	
102	  CG	44.176	52.684	45.433	C.2	13	HIS106	0.000	
103	 CD2	43.194	52.535	44.516	C.2	13	HIS106	0.000	
104	 ND1	43.667	53.511	46.409	N.pl3	13	HIS106	0.000	
105	 CE1	42.432	53.853	46.091	C.2	13	HIS106	0.000	
106	 NE2	42.120	53.274	44.947	N.pl3	13	HIS106	0.000	
107	   N	42.019	50.951	54.869	N.am	14	ASN156	0.000	
108	  CA	42.263	51.793	56.054	C.3	14	ASN156	0.000	
109	   C	43.741	52.022	56.406	C.2	14	ASN156	0.000	
110	   O	44.031	52.826	57.294	O.2	14	ASN156	0.000	
111	  CB	41.568	51.185	57.274	C.3	14	ASN156	0.000	
112	  CG	40.069	51.079	57.102	C.2	14	ASN156	0.000	
113	 ND2	39.499	50.001	57.612	N.pl3	14	ASN156	0.000	
114	 OD1	39.430	51.953	56.517	O.2	14	ASN156	0.000	
115	   N	46.728	53.787	55.192	N.am	15	LEU158	0.000	
116	  CA	47.150	54.832	54.261	C.3	15	LEU158	0.000	
117	   C	48.665	54.944	54.254	C.2	15	LEU158	0.000	
118	   O	49.315	54.588	55.230	O.2	15	LEU158	0.000	
119	  CB	46.542	56.183	54.649	C.3	15	LEU158	0.000	
120	  CG	45.069	56.205	55.056	C.3	15	LEU158	0.000	
121	 CD1	44.621	57.641	55.251	C.3	15	LEU158	0.000	
122	 CD2	44.186	55.502	54.033	C.3	15	LEU158	0.000	
123	   N	43.926	54.723	59.504	N.am	16	ALA172	0.000	
124	  CA	42.703	55.527	59.403	C.3	16	ALA172	0.000	
125	   C	41.461	54.727	59.770	C.2	16	ALA172	0.000	
126	   O	41.498	53.499	59.822	O.2	16	ALA172	0.000	
127	  CB	42.560	56.073	57.986	C.3	16	ALA172	0.000	
128	   N	40.374	55.450	60.043	N.am	17	ASP173	0.000	
129	  CA	39.017	54.890	60.107	C.3	17	ASP173	0.000	
130	   C	38.846	53.804	61.173	C.2	17	ASP173	0.000	
131	   O	38.420	52.689	60.875	O.2	17	ASP173	0.000	
132	  CB	38.616	54.368	58.712	C.3	17	ASP173	0.000	
133	  CG	37.126	54.035	58.590	C.2	17	ASP173	0.000	
134	 OD1	36.290	54.597	59.333	O.co2	17	ASP173	0.000	
135	 OD2	36.795	53.199	57.721	O.co2	17	ASP173	0.000	
136	   N	45.508	60.153	43.422	N.am	18	ARG356	0.000	
137	  CA	44.065	59.908	43.525	C.3	18	ARG356	0.000	
138	   C	43.300	60.665	42.447	C.2	18	ARG356	0.000	
139	   O	43.530	61.857	42.251	O.2	18	ARG356	0.000	
140	  CB	43.530	60.344	44.887	C.3	18	ARG356	0.000	
141	  CG	44.125	59.604	46.064	C.3	18	ARG356	0.000	
142	  CD	43.257	59.780	47.295	C.3	18	ARG356	0.000	
143	  NE	43.824	59.130	48.474	N.pl3	18	ARG356	0.000	
144	  CZ	43.800	57.818	48.718	C.cat	18	ARG356	0.000	
145	 NH1	43.238	56.962	47.862	N.pl3	18	ARG356	0.000	
146	 NH2	44.351	57.354	49.836	N.pl3	18	ARG356	0.000	
147	   N	36.459	62.553	41.907	N.am	19	LEU359	0.000	
148	  CA	35.104	62.080	41.625	C.3	19	LEU359	0.000	
149	   C	34.216	63.293	41.330	C.2	19	LEU359	0.000	
150	   O	33.778	63.996	42.244	O.2	19	LEU359	0.000	
151	  CB	34.564	61.259	42.807	C.3	19	LEU359	0.000	
152	  CG	35.472	60.151	43.362	C.3	19	LEU359	0.000	
153	 CD1	34.736	59.368	44.439	C.3	19	LEU359	0.000	
154	 CD2	35.976	59.201	42.279	C.3	19	LEU359	0.000	
@<TRIPOS>BOND
1 1 2 1
2 2 3 1
3 2 5 1
4 3 4 2
5 3 8 1
6 5 6 1
7 5 7 1
8 8 9 1
9 9 10 1
10 10 11 2
11 12 13 1
12 13 14 1
13 13 16 1
14 14 15 2
15 16 17 1
16 17 18 2
17 17 19 1
18 18 20 1
19 19 21 2
20 20 22 2
21 21 22 1
22 22 23 1
23 24 25 1
24 25 26 1
25 25 28 1
26 26 27 2
27 28 29 1
28 28 30 1
29 31 32 1
30 32 33 1
31 32 35 1
32 33 34 2
33 36 37 1
34 37 38 1
35 37 40 1
36 38 39 2
37 40 41 1
38 41 42 1
39 42 43 1
40 43 44 1
41 45 46 1
42 46 47 1
43 46 49 1
44 47 48 2
45 49 50 1
46 49 51 1
47 50 52 1
48 53 54 1
49 54 55 1
50 54 57 1
51 55 56 2
52 55 64 1
53 57 58 1
54 58 59 2
55 58 60 1
56 59 61 1
57 60 62 2
58 61 63 2
59 62 63 1
60 64 65 1
61 65 66 1
62 65 68 1
63 66 67 2
64 66 72 1
65 68 69 1
66 69 70 2
67 69 71 1
68 72 73 1
69 73 74 1
70 73 76 1
71 74 75 2
72 74 84 1
73 76 77 1
74 77 78 2
75 77 79 1
76 78 80 1
77 79 81 2
78 80 82 2
79 81 82 1
80 82 83 1
81 84 85 1
82 85 86 1
83 85 88 1
84 86 87 2
85 89 90 1
86 90 91 1
87 90 93 1
88 91 92 2
89 93 94 1
90 94 95 2
91 94 96 1
92 97 98 1
93 98 99 1
94 98 101 1
95 99 100 2
96 101 102 1
97 102 103 2
98 102 104 1
99 103 106 1
100 104 105 2
101 105 106 1
102 107 108 1
103 108 109 1
104 108 111 1
105 109 110 2
106 111 112 1
107 112 113 1
108 112 114 2
109 115 116 1
110 116 117 1
111 116 119 1
112 117 118 2
113 119 120 1
114 120 121 1
115 120 122 1
116 123 124 1
117 124 125 1
118 124 127 1
119 125 126 2
120 125 128 1
121 128 129 1
122 129 130 1
123 129 132 1
124 130 131 2
125 132 133 1
126 133 134 2
127 133 135 1
128 136 137 1
129 137 138 1
130 137 140 1
131 138 139 2
132 140 141 1
133 141 142 1
134 142 143 1
135 143 144 1
136 144 145 2
137 144 146 1
138 147 148 1
139 148 149 1
140 148 151 1
141 149 150 2
142 151 152 1
143 152 153 1
144 152 154 1
@<TRIPOS>SUBSTRUCTURE
1	VAL27	1	RESIDUE	1 B	VAL
2	GLY28	8	RESIDUE	1 B	GLY
3	TYR32	12	RESIDUE	1 B	TYR
4	VAL35	24	RESIDUE	1 B	VAL
5	ALA50	31	RESIDUE	1 B	ALA
6	LYS52	36	RESIDUE	1 B	LYS
7	ILE79	45	RESIDUE	1 B	ILE
8	PHE97	53	RESIDUE	1 B	PHE
9	ASP98	64	RESIDUE	1 B	ASP
10	TYR99	72	RESIDUE	1 B	TYR
11	ALA100	84	RESIDUE	1 B	ALA
12	ASP103	89	RESIDUE	1 B	ASP
13	HIS106	97	RESIDUE	1 B	HIS
14	ASN156	107	RESIDUE	1 B	ASN
15	LEU158	115	RESIDUE	1 B	LEU
16	ALA172	123	RESIDUE	1 B	ALA
17	ASP173	128	RESIDUE	1 B	ASP
18	ARG356	136	RESIDUE	1 B	ARG
19	LEU359	147	RESIDUE	1 B	LEU
