# created with PyMOL 2.5.2
@<TRIPOS>MOLECULE
RIPK2_4C8B_TargetProtein
207 198 26              
SMALL
USER_CHARGES
@<TRIPOS>ATOM
1	   N	7.294	7.094	-11.529	N.am	1	LEU24	0.000	
2	  CA	8.719	6.734	-11.473	C.3	1	LEU24	0.000	
3	   C	9.036	5.529	-12.369	C.2	1	LEU24	0.000	
4	   O	9.946	5.579	-13.202	O.2	1	LEU24	0.000	
5	  CB	9.139	6.393	-10.049	C.3	1	LEU24	0.000	
6	  CG	8.865	7.421	-8.964	C.3	1	LEU24	0.000	
7	 CD1	9.179	6.844	-7.589	C.3	1	LEU24	0.000	
8	 CD2	9.660	8.693	-9.223	C.3	1	LEU24	0.000	
9	   N	4.948	2.477	-10.028	N.am	2	VAL32	0.000	
10	  CA	5.590	2.991	-8.828	C.3	2	VAL32	0.000	
11	   C	5.644	4.495	-8.926	C.2	2	VAL32	0.000	
12	   O	6.140	5.034	-9.911	O.2	2	VAL32	0.000	
13	  CB	7.016	2.449	-8.636	C.3	2	VAL32	0.000	
14	 CG1	7.595	2.945	-7.311	C.3	2	VAL32	0.000	
15	 CG2	7.020	0.927	-8.671	C.3	2	VAL32	0.000	
16	   N	7.250	6.247	-1.386	N.am	3	ALA45	0.000	
17	  CA	7.013	5.581	-2.652	C.3	3	ALA45	0.000	
18	   C	5.758	4.774	-2.496	C.2	3	ALA45	0.000	
19	   O	5.446	4.318	-1.412	O.2	3	ALA45	0.000	
20	  CB	8.178	4.681	-3.007	C.3	3	ALA45	0.000	
21	   N	5.027	4.606	-3.578	N.am	4	VAL46	0.000	
22	  CA	3.831	3.801	-3.542	C.3	4	VAL46	0.000	
23	   C	3.727	2.959	-4.805	C.2	4	VAL46	0.000	
24	   O	3.863	3.460	-5.915	O.2	4	VAL46	0.000	
25	  CB	2.568	4.655	-3.366	C.3	4	VAL46	0.000	
26	 CG1	2.517	5.783	-4.372	C.3	4	VAL46	0.000	
27	 CG2	1.317	3.792	-3.501	C.3	4	VAL46	0.000	
28	   N	3.476	1.673	-4.604	N.am	5	LYS47	0.000	
29	  CA	3.313	0.711	-5.688	C.3	5	LYS47	0.000	
30	   C	1.840	0.357	-5.782	C.2	5	LYS47	0.000	
31	   O	1.312	-0.251	-4.876	O.2	5	LYS47	0.000	
32	  CB	4.134	-0.541	-5.384	C.3	5	LYS47	0.000	
33	  CG	3.980	-1.648	-6.414	C.3	5	LYS47	0.000	
34	  CD	4.729	-2.916	-5.953	C.3	5	LYS47	0.000	
35	  CE	6.165	-2.967	-6.456	C.3	5	LYS47	0.000	
36	  NZ	6.812	-4.272	-6.099	N.4	5	LYS47	0.000	
37	   N	2.832	-9.690	-0.550	N.am	6	GLU66	0.000	
38	  CA	4.057	-8.887	-0.655	C.3	6	GLU66	0.000	
39	   C	4.279	-7.995	0.577	C.2	6	GLU66	0.000	
40	   O	5.385	-7.873	1.070	O.2	6	GLU66	0.000	
41	  CB	4.042	-8.025	-1.930	C.3	6	GLU66	0.000	
42	  CG	5.289	-7.160	-2.131	C.3	6	GLU66	0.000	
43	  CD	5.366	-6.459	-3.490	C.2	6	GLU66	0.000	
44	 OE1	4.537	-6.710	-4.380	O.co2	6	GLU66	0.000	
45	 OE2	6.276	-5.638	-3.694	O.co2	6	GLU66	0.000	
46	   N	5.424	-9.983	3.520	N.am	7	ILE69	0.000	
47	  CA	6.841	-10.315	3.381	C.3	7	ILE69	0.000	
48	   C	7.724	-9.148	3.805	C.2	7	ILE69	0.000	
49	   O	8.545	-9.286	4.711	O.2	7	ILE69	0.000	
50	  CB	7.224	-10.691	1.943	C.3	7	ILE69	0.000	
51	 CG1	6.559	-11.986	1.516	C.3	7	ILE69	0.000	
52	 CG2	8.727	-10.885	1.805	C.3	7	ILE69	0.000	
53	 CD1	6.449	-12.091	0.003	C.3	7	ILE69	0.000	
54	   N	7.550	-8.002	3.159	N.am	8	LEU70	0.000	
55	  CA	8.334	-6.822	3.494	C.3	8	LEU70	0.000	
56	   C	8.254	-6.476	4.961	C.2	8	LEU70	0.000	
57	   O	9.235	-6.040	5.546	O.2	8	LEU70	0.000	
58	  CB	7.878	-5.588	2.690	C.3	8	LEU70	0.000	
59	  CG	8.690	-5.196	1.471	C.3	8	LEU70	0.000	
60	 CD1	8.078	-3.946	0.868	C.3	8	LEU70	0.000	
61	 CD2	10.132	-4.976	1.861	C.3	8	LEU70	0.000	
62	   N	10.211	-8.775	7.032	N.am	9	ALA73	0.000	
63	  CA	11.648	-8.624	6.751	C.3	9	ALA73	0.000	
64	   C	12.247	-7.265	7.105	C.2	9	ALA73	0.000	
65	   O	13.221	-6.861	6.499	O.2	9	ALA73	0.000	
66	  CB	11.925	-8.941	5.292	C.3	9	ALA73	0.000	
67	   N	17.019	-3.525	4.090	N.am	10	ILE78	0.000	
68	  CA	15.828	-3.927	3.345	C.3	10	ILE78	0.000	
69	   C	14.882	-2.737	3.284	C.2	10	ILE78	0.000	
70	   O	14.615	-2.095	4.297	O.2	10	ILE78	0.000	
71	  CB	15.078	-5.072	4.062	C.3	10	ILE78	0.000	
72	 CG1	15.997	-6.284	4.261	C.3	10	ILE78	0.000	
73	 CG2	13.833	-5.471	3.296	C.3	10	ILE78	0.000	
74	 CD1	16.615	-6.821	3.006	C.3	10	ILE78	0.000	
75	   N	14.361	-2.457	2.093	N.am	11	LEU79	0.000	
76	  CA	13.429	-1.336	1.913	C.3	11	LEU79	0.000	
77	   C	12.297	-1.363	2.958	C.2	11	LEU79	0.000	
78	   O	11.556	-2.316	3.041	O.2	11	LEU79	0.000	
79	  CB	12.854	-1.350	0.498	C.3	11	LEU79	0.000	
80	  CG	11.957	-0.157	0.166	C.3	11	LEU79	0.000	
81	 CD1	12.701	1.166	0.254	C.3	11	LEU79	0.000	
82	 CD2	11.337	-0.333	-1.209	C.3	11	LEU79	0.000	
83	   N	1.108	-0.602	-1.988	N.am	12	ILE93	0.000	
84	  CA	2.026	-0.656	-0.869	C.3	12	ILE93	0.000	
85	   C	2.799	0.649	-0.828	C.2	12	ILE93	0.000	
86	   O	3.270	1.117	-1.867	O.2	12	ILE93	0.000	
87	  CB	3.025	-1.802	-1.034	C.3	12	ILE93	0.000	
88	 CG1	2.303	-3.135	-0.856	C.3	12	ILE93	0.000	
89	 CG2	4.144	-1.694	-0.001	C.3	12	ILE93	0.000	
90	 CD1	3.084	-4.319	-1.365	C.3	12	ILE93	0.000	
91	   N	6.090	2.601	0.798	N.am	13	THR95	0.000	
92	  CA	7.394	2.402	1.411	C.3	13	THR95	0.000	
93	   C	8.111	3.733	1.541	C.2	13	THR95	0.000	
94	   O	7.622	4.736	1.079	O.2	13	THR95	0.000	
95	  CB	8.307	1.484	0.563	C.3	13	THR95	0.000	
96	 CG2	7.620	0.205	0.204	C.3	13	THR95	0.000	
97	 OG1	8.691	2.177	-0.635	O.3	13	THR95	0.000	
98	   N	9.269	3.721	2.190	N.am	14	GLU96	0.000	
99	  CA	10.126	4.893	2.228	C.3	14	GLU96	0.000	
100	   C	10.575	5.151	0.809	C.2	14	GLU96	0.000	
101	   O	10.641	4.235	0.003	O.2	14	GLU96	0.000	
102	  CB	11.356	4.701	3.148	C.3	14	GLU96	0.000	
103	  CG	11.067	4.734	4.642	C.3	14	GLU96	0.000	
104	  CD	12.333	4.718	5.529	C.2	14	GLU96	0.000	
105	 OE1	13.467	4.517	5.006	O.co2	14	GLU96	0.000	
106	 OE2	12.186	4.916	6.771	O.co2	14	GLU96	0.000	
107	   N	10.873	6.407	0.527	N.am	15	TYR97	0.000	
108	  CA	11.316	6.819	-0.773	C.3	15	TYR97	0.000	
109	   C	12.835	6.952	-0.756	C.2	15	TYR97	0.000	
110	   O	13.412	7.527	0.162	O.2	15	TYR97	0.000	
111	  CB	10.665	8.139	-1.124	C.3	15	TYR97	0.000	
112	  CG	11.202	8.755	-2.370	C.2	15	TYR97	0.000	
113	 CD1	11.038	8.135	-3.603	C.2	15	TYR97	0.000	
114	 CD2	11.876	9.977	-2.317	C.2	15	TYR97	0.000	
115	 CE1	11.549	8.703	-4.757	C.2	15	TYR97	0.000	
116	 CE2	12.386	10.562	-3.460	C.2	15	TYR97	0.000	
117	  CZ	12.222	9.920	-4.676	C.2	15	TYR97	0.000	
118	  OH	12.737	10.501	-5.802	O.3	15	TYR97	0.000	
119	   N	13.479	6.414	-1.787	N.am	16	MET98	0.000	
120	  CA	14.936	6.410	-1.909	C.3	16	MET98	0.000	
121	   C	15.339	7.400	-3.004	C.2	16	MET98	0.000	
122	   O	15.176	7.128	-4.188	O.2	16	MET98	0.000	
123	  CB	15.403	5.010	-2.232	C.3	16	MET98	0.000	
124	  CG	14.979	4.005	-1.172	C.3	16	MET98	0.000	
125	  SD	15.957	4.151	0.325	S.3	16	MET98	0.000	
126	  CE	14.691	4.457	1.550	C.3	16	MET98	0.000	
127	   N	15.834	8.576	-2.606	N.am	17	PRO99	0.000	
128	  CA	16.001	9.728	-3.514	C.3	17	PRO99	0.000	
129	   C	17.092	9.568	-4.546	C.2	17	PRO99	0.000	
130	   O	17.083	10.265	-5.568	O.2	17	PRO99	0.000	
131	  CB	16.375	10.890	-2.573	C.3	17	PRO99	0.000	
132	  CG	16.211	10.378	-1.175	C.3	17	PRO99	0.000	
133	  CD	16.292	8.880	-1.242	C.3	17	PRO99	0.000	
134	   N	17.931	-12.084	4.956	N.am	18	LEU135	0.000	
135	  CA	16.800	-12.801	4.393	C.3	18	LEU135	0.000	
136	   C	17.026	-14.312	4.514	C.2	18	LEU135	0.000	
137	   O	16.135	-15.058	4.935	O.2	18	LEU135	0.000	
138	  CB	16.585	-12.431	2.932	C.3	18	LEU135	0.000	
139	  CG	16.319	-10.959	2.614	C.3	18	LEU135	0.000	
140	 CD1	16.265	-10.721	1.116	C.3	18	LEU135	0.000	
141	 CD2	15.014	-10.528	3.249	C.3	18	LEU135	0.000	
142	   N	13.924	-16.505	3.700	N.am	19	LEU142	0.000	
143	  CA	13.476	-15.836	2.486	C.3	19	LEU142	0.000	
144	   C	14.600	-15.870	1.466	C.2	19	LEU142	0.000	
145	   O	15.749	-15.582	1.783	O.2	19	LEU142	0.000	
146	  CB	13.083	-14.378	2.753	C.3	19	LEU142	0.000	
147	  CG	11.648	-14.145	3.233	C.3	19	LEU142	0.000	
148	 CD1	11.384	-12.673	3.511	C.3	19	LEU142	0.000	
149	 CD2	10.638	-14.665	2.212	C.3	19	LEU142	0.000	
150	   N	14.253	-16.232	0.240	N.am	20	LEU143	0.000	
151	  CA	15.197	-16.226	-0.863	C.3	20	LEU143	0.000	
152	   C	14.727	-15.157	-1.827	C.2	20	LEU143	0.000	
153	   O	13.532	-15.041	-2.094	O.2	20	LEU143	0.000	
154	  CB	15.232	-17.591	-1.542	C.3	20	LEU143	0.000	
155	  CG	15.583	-18.746	-0.592	C.3	20	LEU143	0.000	
156	 CD1	15.334	-20.091	-1.269	C.3	20	LEU143	0.000	
157	 CD2	17.020	-18.621	-0.090	C.3	20	LEU143	0.000	
158	   N	15.658	-14.364	-2.345	N.am	21	HIE144	0.000	
159	  CA	15.257	-13.191	-3.105	C.3	21	HIE144	0.000	
160	   C	14.878	-13.623	-4.496	C.2	21	HIE144	0.000	
161	   O	13.749	-13.406	-4.932	O.2	21	HIE144	0.000	
162	  CB	16.353	-12.145	-3.110	C.3	21	HIE144	0.000	
163	  CG	15.903	-10.842	-3.658	C.2	21	HIE144	0.000	
164	 CD2	15.810	-9.618	-3.094	C.2	21	HIE144	0.000	
165	 ND1	15.466	-10.698	-4.952	N.2	21	HIE144	0.000	
166	 CE1	15.133	-9.441	-5.170	C.2	21	HIE144	0.000	
167	 NE2	15.328	-8.765	-4.056	N.pl3	21	HIE144	0.000	
168	   N	18.379	-0.269	-4.128	N.am	22	LEU153	0.000	
169	  CA	18.122	1.166	-4.014	C.3	22	LEU153	0.000	
170	   C	19.105	1.813	-3.048	C.2	22	LEU153	0.000	
171	   O	19.774	1.125	-2.280	O.2	22	LEU153	0.000	
172	  CB	16.692	1.419	-3.579	C.3	22	LEU153	0.000	
173	  CG	15.617	0.738	-4.432	C.3	22	LEU153	0.000	
174	 CD1	14.218	1.144	-3.980	C.3	22	LEU153	0.000	
175	 CD2	15.811	1.059	-5.899	C.3	22	LEU153	0.000	
176	   N	17.560	-2.991	-0.221	N.am	23	ILE162	0.000	
177	  CA	17.237	-4.023	-1.179	C.3	23	ILE162	0.000	
178	   C	15.749	-4.011	-1.435	C.2	23	ILE162	0.000	
179	   O	14.963	-3.835	-0.516	O.2	23	ILE162	0.000	
180	  CB	17.649	-5.417	-0.674	C.3	23	ILE162	0.000	
181	 CG1	19.159	-5.556	-0.688	C.3	23	ILE162	0.000	
182	 CG2	17.038	-6.502	-1.561	C.3	23	ILE162	0.000	
183	 CD1	19.660	-6.843	-0.055	C.3	23	ILE162	0.000	
184	   N	15.370	-4.241	-2.675	N.am	24	ALA163	0.000	
185	  CA	13.974	-4.202	-3.053	C.3	24	ALA163	0.000	
186	   C	13.686	-5.275	-4.084	C.2	24	ALA163	0.000	
187	   O	14.567	-6.074	-4.392	O.2	24	ALA163	0.000	
188	  CB	13.639	-2.821	-3.596	C.3	24	ALA163	0.000	
189	   N	12.447	-5.293	-4.593	N.am	25	ASP164	0.000	
190	  CA	12.054	-6.173	-5.689	C.3	25	ASP164	0.000	
191	   C	10.870	-5.589	-6.472	C.2	25	ASP164	0.000	
192	   O	9.975	-5.036	-5.872	O.2	25	ASP164	0.000	
193	  CB	11.699	-7.545	-5.132	C.3	25	ASP164	0.000	
194	  CG	11.580	-8.592	-6.200	C.2	25	ASP164	0.000	
195	 OD1	12.092	-8.380	-7.325	O.co2	25	ASP164	0.000	
196	 OD2	10.952	-9.640	-5.915	O.co2	25	ASP164	0.000	
197	   N	10.873	-5.715	-7.799	N.am	26	PHE165	0.000	
198	  CA	9.887	-5.050	-8.679	C.3	26	PHE165	0.000	
199	   C	9.178	-5.957	-9.712	C.2	26	PHE165	0.000	
200	   O	9.486	-7.144	-9.878	O.2	26	PHE165	0.000	
201	  CB	10.578	-3.909	-9.458	C.3	26	PHE165	0.000	
202	  CG	10.982	-2.736	-8.611	C.2	26	PHE165	0.000	
203	 CD1	10.023	-1.957	-7.994	C.2	26	PHE165	0.000	
204	 CD2	12.309	-2.387	-8.459	C.2	26	PHE165	0.000	
205	 CE1	10.368	-0.867	-7.219	C.2	26	PHE165	0.000	
206	 CE2	12.670	-1.290	-7.681	C.2	26	PHE165	0.000	
207	  CZ	11.696	-0.536	-7.051	C.2	26	PHE165	0.000	
@<TRIPOS>BOND
1 1 2 1
2 2 3 1
3 2 5 1
4 3 4 2
5 5 6 1
6 6 7 1
7 6 8 1
8 9 10 1
9 10 11 1
10 10 13 1
11 11 12 2
12 13 14 1
13 13 15 1
14 16 17 1
15 17 18 1
16 17 20 1
17 18 19 2
18 18 21 1
19 21 22 1
20 22 23 1
21 22 25 1
22 23 24 2
23 23 28 1
24 25 26 1
25 25 27 1
26 28 29 1
27 29 30 1
28 29 32 1
29 30 31 2
30 32 33 1
31 33 34 1
32 34 35 1
33 35 36 1
34 37 38 1
35 38 39 1
36 38 41 1
37 39 40 2
38 41 42 1
39 42 43 1
40 43 44 2
41 43 45 1
42 46 47 1
43 47 48 1
44 47 50 1
45 48 49 2
46 48 54 1
47 50 51 1
48 50 52 1
49 51 53 1
50 54 55 1
51 55 56 1
52 55 58 1
53 56 57 2
54 58 59 1
55 59 60 1
56 59 61 1
57 62 63 1
58 63 64 1
59 63 66 1
60 64 65 2
61 67 68 1
62 68 69 1
63 68 71 1
64 69 70 2
65 69 75 1
66 71 72 1
67 71 73 1
68 72 74 1
69 75 76 1
70 76 77 1
71 76 79 1
72 77 78 2
73 79 80 1
74 80 81 1
75 80 82 1
76 83 84 1
77 84 85 1
78 84 87 1
79 85 86 2
80 87 88 1
81 87 89 1
82 88 90 1
83 91 92 1
84 92 93 1
85 92 95 1
86 93 94 2
87 93 98 1
88 95 96 1
89 95 97 1
90 98 99 1
91 99 100 1
92 99 102 1
93 100 101 2
94 100 107 1
95 102 103 1
96 103 104 1
97 104 105 2
98 104 106 1
99 107 108 1
100 108 109 1
101 108 111 1
102 109 110 2
103 109 119 1
104 111 112 1
105 112 113 2
106 112 114 1
107 113 115 1
108 114 116 2
109 115 117 2
110 116 117 1
111 117 118 1
112 119 120 1
113 120 121 1
114 120 123 1
115 121 122 2
116 121 127 1
117 123 124 1
118 124 125 1
119 125 126 1
120 127 128 1
121 127 133 1
122 128 129 1
123 128 131 1
124 129 130 2
125 131 132 1
126 132 133 1
127 134 135 1
128 135 136 1
129 135 138 1
130 136 137 2
131 138 139 1
132 139 140 1
133 139 141 1
134 142 143 1
135 143 144 1
136 143 146 1
137 144 145 2
138 144 150 1
139 146 147 1
140 147 148 1
141 147 149 1
142 150 151 1
143 151 152 1
144 151 154 1
145 152 153 2
146 152 158 1
147 154 155 1
148 155 156 1
149 155 157 1
150 158 159 1
151 159 160 1
152 159 162 1
153 160 161 2
154 162 163 1
155 163 164 2
156 163 165 1
157 164 167 1
158 165 166 2
159 166 167 1
160 168 169 1
161 169 170 1
162 169 172 1
163 170 171 2
164 172 173 1
165 173 174 1
166 173 175 1
167 176 177 1
168 177 178 1
169 177 180 1
170 178 179 2
171 178 184 1
172 180 181 1
173 180 182 1
174 181 183 1
175 184 185 1
176 185 186 1
177 185 188 1
178 186 187 2
179 186 189 1
180 189 190 1
181 190 191 1
182 190 193 1
183 191 192 2
184 191 197 1
185 193 194 1
186 194 195 2
187 194 196 1
188 197 198 1
189 198 199 1
190 198 201 1
191 199 200 2
192 201 202 1
193 202 203 2
194 202 204 1
195 203 205 1
196 204 206 2
197 205 207 2
198 206 207 1
@<TRIPOS>SUBSTRUCTURE
1	LEU24	1	RESIDUE	1 B	LEU
2	VAL32	9	RESIDUE	1 B	VAL
3	ALA45	16	RESIDUE	1 B	ALA
4	VAL46	21	RESIDUE	1 B	VAL
5	LYS47	28	RESIDUE	1 B	LYS
6	GLU66	37	RESIDUE	1 B	GLU
7	ILE69	46	RESIDUE	1 B	ILE
8	LEU70	54	RESIDUE	1 B	LEU
9	ALA73	62	RESIDUE	1 B	ALA
10	ILE78	67	RESIDUE	1 B	ILE
11	LEU79	75	RESIDUE	1 B	LEU
12	ILE93	83	RESIDUE	1 B	ILE
13	THR95	91	RESIDUE	1 B	THR
14	GLU96	98	RESIDUE	1 B	GLU
15	TYR97	107	RESIDUE	1 B	TYR
16	MET98	119	RESIDUE	1 B	MET
17	PRO99	127	RESIDUE	1 B	PRO
18	LEU135	134	RESIDUE	1 B	LEU
19	LEU142	142	RESIDUE	1 B	LEU
20	LEU143	150	RESIDUE	1 B	LEU
21	HIE144	158	RESIDUE	1 B	HIE
22	LEU153	168	RESIDUE	1 B	LEU
23	ILE162	176	RESIDUE	1 B	ILE
24	ALA163	184	RESIDUE	1 B	ALA
25	ASP164	189	RESIDUE	1 B	ASP
26	PHE165	197	RESIDUE	1 B	PHE
