# created with PyMOL 2.5.2
@<TRIPOS>MOLECULE
EGFR_4I23_TargetProtein
157 151 21              
SMALL
USER_CHARGES
@<TRIPOS>ATOM
1	   N	-3.300	-46.032	-19.288	N.am	1	LEU718	0.000	
2	  CA	-2.225	-46.790	-18.667	C.3	1	LEU718	0.000	
3	   C	-0.906	-46.100	-18.979	C.2	1	LEU718	0.000	
4	   O	0.015	-46.105	-18.167	O.2	1	LEU718	0.000	
5	  CB	-2.202	-48.225	-19.200	C.3	1	LEU718	0.000	
6	  CG	-3.238	-49.188	-18.623	C.3	1	LEU718	0.000	
7	 CD1	-4.595	-48.526	-18.622	C.3	1	LEU718	0.000	
8	 CD2	-3.273	-50.461	-19.438	C.3	1	LEU718	0.000	
9	   N	-0.825	-45.503	-20.164	N.am	2	GLY719	0.000	
10	  CA	0.405	-44.855	-20.580	C.3	2	GLY719	0.000	
11	   C	0.142	-43.653	-21.461	C.2	2	GLY719	0.000	
12	   O	-0.961	-43.493	-21.988	O.2	2	GLY719	0.000	
13	   N	-1.827	-45.445	-24.431	N.am	3	VAL726	0.000	
14	  CA	-2.393	-46.781	-24.220	C.3	3	VAL726	0.000	
15	   C	-3.461	-46.782	-23.129	C.2	3	VAL726	0.000	
16	   O	-3.271	-46.181	-22.076	O.2	3	VAL726	0.000	
17	  CB	-1.305	-47.792	-23.812	C.3	3	VAL726	0.000	
18	 CG1	-1.927	-49.152	-23.590	C.3	3	VAL726	0.000	
19	 CG2	-0.237	-47.870	-24.877	C.3	3	VAL726	0.000	
20	   N	-6.334	-53.872	-23.701	N.am	4	ALA743	0.000	
21	  CA	-5.622	-52.617	-23.854	C.3	4	ALA743	0.000	
22	   C	-5.866	-52.064	-25.257	C.2	4	ALA743	0.000	
23	   O	-5.865	-52.803	-26.244	O.2	4	ALA743	0.000	
24	  CB	-4.153	-52.820	-23.627	C.3	4	ALA743	0.000	
25	   N	-6.088	-50.757	-25.331	N.am	5	ILE744	0.000	
26	  CA	-6.336	-50.067	-26.590	C.3	5	ILE744	0.000	
27	   C	-5.218	-49.061	-26.799	C.2	5	ILE744	0.000	
28	   O	-5.010	-48.182	-25.970	O.2	5	ILE744	0.000	
29	  CB	-7.660	-49.296	-26.539	C.3	5	ILE744	0.000	
30	 CG1	-8.793	-50.241	-26.146	C.3	5	ILE744	0.000	
31	 CG2	-7.935	-48.640	-27.886	C.3	5	ILE744	0.000	
32	 CD1	-9.718	-49.664	-25.120	C.3	5	ILE744	0.000	
33	   N	-4.496	-49.187	-27.904	N.am	6	LYS745	0.000	
34	  CA	-3.385	-48.286	-28.164	C.3	6	LYS745	0.000	
35	   C	-3.581	-47.503	-29.458	C.2	6	LYS745	0.000	
36	   O	-3.596	-48.084	-30.545	O.2	6	LYS745	0.000	
37	  CB	-2.079	-49.072	-28.240	C.3	6	LYS745	0.000	
38	  CG	-0.890	-48.206	-28.565	C.3	6	LYS745	0.000	
39	  CD	0.382	-49.020	-28.649	C.3	6	LYS745	0.000	
40	  CE	0.776	-49.278	-30.089	C.3	6	LYS745	0.000	
41	  NZ	1.992	-50.119	-30.162	N.4	6	LYS745	0.000	
42	   N	2.589	-52.709	-37.364	N.am	7	GLU762	0.000	
43	  CA	2.522	-53.354	-36.071	C.3	7	GLU762	0.000	
44	   C	1.328	-54.294	-35.967	C.2	7	GLU762	0.000	
45	   O	1.435	-55.371	-35.382	O.2	7	GLU762	0.000	
46	  CB	2.442	-52.290	-34.989	C.3	7	GLU762	0.000	
47	  CG	2.120	-52.826	-33.627	C.3	7	GLU762	0.000	
48	  CD	2.804	-52.035	-32.546	C.2	7	GLU762	0.000	
49	 OE1	3.359	-50.961	-32.870	O.co2	7	GLU762	0.000	
50	 OE2	2.792	-52.493	-31.378	O.co2	7	GLU762	0.000	
51	   N	1.310	-58.371	-35.329	N.am	8	MET766	0.000	
52	  CA	0.574	-58.906	-34.178	C.3	8	MET766	0.000	
53	   C	-0.566	-59.810	-34.606	C.2	8	MET766	0.000	
54	   O	-0.918	-60.751	-33.897	O.2	8	MET766	0.000	
55	  CB	-0.007	-57.785	-33.319	C.3	8	MET766	0.000	
56	  CG	0.965	-57.120	-32.374	C.3	8	MET766	0.000	
57	  SD	0.083	-56.083	-31.191	S.3	8	MET766	0.000	
58	  CE	-0.104	-57.230	-29.857	C.3	8	MET766	0.000	
59	   N	-5.224	-49.914	-31.940	N.am	9	LEU788	0.000	
60	  CA	-4.917	-51.331	-31.793	C.3	9	LEU788	0.000	
61	   C	-5.597	-51.901	-30.551	C.2	9	LEU788	0.000	
62	   O	-5.652	-51.243	-29.512	O.2	9	LEU788	0.000	
63	  CB	-3.410	-51.524	-31.684	C.3	9	LEU788	0.000	
64	  CG	-2.680	-51.485	-33.018	C.3	9	LEU788	0.000	
65	 CD1	-1.194	-51.364	-32.790	C.3	9	LEU788	0.000	
66	 CD2	-2.998	-52.744	-33.785	C.3	9	LEU788	0.000	
67	   N	-6.117	-53.122	-30.664	N.am	10	ILE789	0.000	
68	  CA	-6.748	-53.786	-29.524	C.3	10	ILE789	0.000	
69	   C	-6.080	-55.114	-29.167	C.2	10	ILE789	0.000	
70	   O	-6.027	-56.040	-29.980	O.2	10	ILE789	0.000	
71	  CB	-8.224	-54.075	-29.794	C.3	10	ILE789	0.000	
72	 CG1	-8.865	-52.874	-30.493	C.3	10	ILE789	0.000	
73	 CG2	-8.931	-54.379	-28.480	C.3	10	ILE789	0.000	
74	 CD1	-8.734	-51.609	-29.722	C.3	10	ILE789	0.000	
75	   N	-5.584	-55.215	-27.943	N.am	11	THR790	0.000	
76	  CA	-4.999	-56.462	-27.489	C.3	11	THR790	0.000	
77	   C	-5.607	-56.902	-26.189	C.2	11	THR790	0.000	
78	   O	-6.247	-56.119	-25.497	O.2	11	THR790	0.000	
79	  CB	-3.512	-56.332	-27.245	C.3	11	THR790	0.000	
80	 CG2	-2.773	-56.123	-28.537	C.3	11	THR790	0.000	
81	 OG1	-3.284	-55.228	-26.360	O.3	11	THR790	0.000	
82	   N	-5.378	-58.169	-25.864	N.am	12	GLN791	0.000	
83	  CA	-5.627	-58.696	-24.535	C.3	12	GLN791	0.000	
84	   C	-4.891	-57.853	-23.512	C.2	12	GLN791	0.000	
85	   O	-3.709	-57.545	-23.677	O.2	12	GLN791	0.000	
86	  CB	-5.131	-60.131	-24.459	C.3	12	GLN791	0.000	
87	  CG	-5.284	-60.772	-23.096	C.3	12	GLN791	0.000	
88	  CD	-4.540	-62.100	-22.997	C.2	12	GLN791	0.000	
89	 NE2	-5.038	-62.994	-22.144	N.pl3	12	GLN791	0.000	
90	 OE1	-3.527	-62.319	-23.683	O.2	12	GLN791	0.000	
91	   N	-5.606	-57.478	-22.457	N.am	13	LEU792	0.000	
92	  CA	-5.024	-56.747	-21.337	C.3	13	LEU792	0.000	
93	   C	-4.065	-57.642	-20.548	C.2	13	LEU792	0.000	
94	   O	-4.404	-58.773	-20.169	O.2	13	LEU792	0.000	
95	  CB	-6.138	-56.245	-20.417	C.3	13	LEU792	0.000	
96	  CG	-5.770	-55.472	-19.144	C.3	13	LEU792	0.000	
97	 CD1	-5.106	-54.137	-19.461	C.3	13	LEU792	0.000	
98	 CD2	-7.037	-55.244	-18.367	C.3	13	LEU792	0.000	
99	   N	-2.864	-57.128	-20.310	N.am	14	MET793	0.000	
100	  CA	-1.877	-57.803	-19.469	C.3	14	MET793	0.000	
101	   C	-1.781	-57.057	-18.139	C.2	14	MET793	0.000	
102	   O	-0.980	-56.134	-17.978	O.2	14	MET793	0.000	
103	  CB	-0.520	-57.815	-20.175	C.3	14	MET793	0.000	
104	  CG	-0.574	-58.452	-21.544	C.3	14	MET793	0.000	
105	  SD	-1.122	-60.158	-21.435	S.3	14	MET793	0.000	
106	  CE	0.471	-60.970	-21.109	C.3	14	MET793	0.000	
107	   N	-2.614	-57.456	-17.169	N.am	15	PRO794	0.000	
108	  CA	-2.945	-56.603	-16.022	C.3	15	PRO794	0.000	
109	   C	-1.727	-56.136	-15.227	C.2	15	PRO794	0.000	
110	   O	-1.708	-55.020	-14.712	O.2	15	PRO794	0.000	
111	  CB	-3.888	-57.474	-15.192	C.3	15	PRO794	0.000	
112	  CG	-4.481	-58.431	-16.191	C.3	15	PRO794	0.000	
113	  CD	-3.368	-58.722	-17.153	C.3	15	PRO794	0.000	
114	   N	-0.702	-56.978	-15.142	N.am	16	PHE795	0.000	
115	  CA	0.450	-56.672	-14.303	C.3	16	PHE795	0.000	
116	   C	1.535	-55.821	-14.976	C.2	16	PHE795	0.000	
117	   O	2.598	-55.587	-14.391	O.2	16	PHE795	0.000	
118	  CB	1.042	-57.972	-13.769	C.3	16	PHE795	0.000	
119	  CG	0.121	-58.714	-12.842	C.2	16	PHE795	0.000	
120	 CD1	-0.729	-59.691	-13.324	C.2	16	PHE795	0.000	
121	 CD2	0.106	-58.433	-11.485	C.2	16	PHE795	0.000	
122	 CE1	-1.577	-60.376	-12.475	C.2	16	PHE795	0.000	
123	 CE2	-0.742	-59.118	-10.623	C.2	16	PHE795	0.000	
124	  CZ	-1.583	-60.089	-11.118	C.2	16	PHE795	0.000	
125	   N	1.256	-55.354	-16.194	N.am	17	GLY796	0.000	
126	  CA	2.135	-54.408	-16.854	C.3	17	GLY796	0.000	
127	   C	3.362	-55.061	-17.457	C.2	17	GLY796	0.000	
128	   O	3.437	-56.293	-17.553	O.2	17	GLY796	0.000	
129	   N	4.329	-54.239	-17.867	N.am	18	CYS797	0.000	
130	  CA	5.566	-54.752	-18.431	C.3	18	CYS797	0.000	
131	   C	6.422	-55.358	-17.322	C.2	18	CYS797	0.000	
132	   O	6.249	-55.032	-16.148	O.2	18	CYS797	0.000	
133	  CB	6.335	-53.639	-19.155	C.3	18	CYS797	0.000	
134	  SG	6.999	-52.352	-18.098	S.3	18	CYS797	0.000	
135	   N	5.250	-58.408	-21.393	N.am	19	LEU844	0.000	
136	  CA	4.115	-58.080	-20.548	C.3	19	LEU844	0.000	
137	   C	3.737	-59.251	-19.666	C.2	19	LEU844	0.000	
138	   O	3.988	-60.410	-20.016	O.2	19	LEU844	0.000	
139	  CB	2.925	-57.647	-21.404	C.3	19	LEU844	0.000	
140	  CG	3.295	-56.472	-22.321	C.3	19	LEU844	0.000	
141	 CD1	2.250	-56.335	-23.414	C.3	19	LEU844	0.000	
142	 CD2	3.420	-55.181	-21.505	C.3	19	LEU844	0.000	
143	   N	5.900	-58.650	-26.529	N.am	20	THR854	0.000	
144	  CA	5.058	-57.646	-27.144	C.3	20	THR854	0.000	
145	   C	5.895	-56.665	-27.962	C.2	20	THR854	0.000	
146	   O	7.100	-56.855	-28.134	O.2	20	THR854	0.000	
147	  CB	4.286	-56.877	-26.075	C.3	20	THR854	0.000	
148	 CG2	5.180	-55.844	-25.433	C.3	20	THR854	0.000	
149	 OG1	3.174	-56.205	-26.670	O.3	20	THR854	0.000	
150	   N	5.235	-55.626	-28.476	N.am	21	ASP855	0.000	
151	  CA	5.878	-54.509	-29.181	C.3	21	ASP855	0.000	
152	   C	6.607	-54.894	-30.465	C.2	21	ASP855	0.000	
153	   O	7.837	-54.885	-30.528	O.2	21	ASP855	0.000	
154	  CB	6.849	-53.794	-28.251	C.3	21	ASP855	0.000	
155	  CG	6.863	-52.293	-28.465	C.2	21	ASP855	0.000	
156	 OD1	7.511	-51.830	-29.438	O.co2	21	ASP855	0.000	
157	 OD2	6.222	-51.582	-27.650	O.co2	21	ASP855	0.000	
@<TRIPOS>BOND
1 1 2 1
2 2 3 1
3 2 5 1
4 3 4 2
5 3 9 1
6 5 6 1
7 6 7 1
8 6 8 1
9 9 10 1
10 10 11 1
11 11 12 2
12 13 14 1
13 14 15 1
14 14 17 1
15 15 16 2
16 17 18 1
17 17 19 1
18 20 21 1
19 21 22 1
20 21 24 1
21 22 23 2
22 22 25 1
23 25 26 1
24 26 27 1
25 26 29 1
26 27 28 2
27 27 33 1
28 29 30 1
29 29 31 1
30 30 32 1
31 33 34 1
32 34 35 1
33 34 37 1
34 35 36 2
35 37 38 1
36 38 39 1
37 39 40 1
38 40 41 1
39 42 43 1
40 43 44 1
41 43 46 1
42 44 45 2
43 46 47 1
44 47 48 1
45 48 49 2
46 48 50 1
47 51 52 1
48 52 53 1
49 52 55 1
50 53 54 2
51 55 56 1
52 56 57 1
53 57 58 1
54 59 60 1
55 60 61 1
56 60 63 1
57 61 62 2
58 61 67 1
59 63 64 1
60 64 65 1
61 64 66 1
62 67 68 1
63 68 69 1
64 68 71 1
65 69 70 2
66 69 75 1
67 71 72 1
68 71 73 1
69 72 74 1
70 75 76 1
71 76 77 1
72 76 79 1
73 77 78 2
74 77 82 1
75 79 80 1
76 79 81 1
77 82 83 1
78 83 84 1
79 83 86 1
80 84 85 2
81 84 91 1
82 86 87 1
83 87 88 1
84 88 89 1
85 88 90 2
86 91 92 1
87 92 93 1
88 92 95 1
89 93 94 2
90 93 99 1
91 95 96 1
92 96 97 1
93 96 98 1
94 99 100 1
95 100 101 1
96 100 103 1
97 101 102 2
98 101 107 1
99 103 104 1
100 104 105 1
101 105 106 1
102 107 108 1
103 107 113 1
104 108 109 1
105 108 111 1
106 109 110 2
107 109 114 1
108 111 112 1
109 112 113 1
110 114 115 1
111 115 116 1
112 115 118 1
113 116 117 2
114 116 125 1
115 118 119 1
116 119 120 2
117 119 121 1
118 120 122 1
119 121 123 2
120 122 124 2
121 123 124 1
122 125 126 1
123 126 127 1
124 127 128 2
125 127 129 1
126 129 130 1
127 130 131 1
128 130 133 1
129 131 132 2
130 133 134 1
131 135 136 1
132 136 137 1
133 136 139 1
134 137 138 2
135 139 140 1
136 140 141 1
137 140 142 1
138 143 144 1
139 144 145 1
140 144 147 1
141 145 146 2
142 145 150 1
143 147 148 1
144 147 149 1
145 150 151 1
146 151 152 1
147 151 154 1
148 152 153 2
149 154 155 1
150 155 156 2
151 155 157 1
@<TRIPOS>SUBSTRUCTURE
1	LEU718	1	RESIDUE	1 B	LEU
2	GLY719	9	RESIDUE	1 B	GLY
3	VAL726	13	RESIDUE	1 B	VAL
4	ALA743	20	RESIDUE	1 B	ALA
5	ILE744	25	RESIDUE	1 B	ILE
6	LYS745	33	RESIDUE	1 B	LYS
7	GLU762	42	RESIDUE	1 B	GLU
8	MET766	51	RESIDUE	1 B	MET
9	LEU788	59	RESIDUE	1 B	LEU
10	ILE789	67	RESIDUE	1 B	ILE
11	THR790	75	RESIDUE	1 B	THR
12	GLN791	82	RESIDUE	1 B	GLN
13	LEU792	91	RESIDUE	1 B	LEU
14	MET793	99	RESIDUE	1 B	MET
15	PRO794	107	RESIDUE	1 B	PRO
16	PHE795	114	RESIDUE	1 B	PHE
17	GLY796	125	RESIDUE	1 B	GLY
18	CYS797	129	RESIDUE	1 B	CYS
19	LEU844	135	RESIDUE	1 B	LEU
20	THR854	143	RESIDUE	1 B	THR
21	ASP855	150	RESIDUE	1 B	ASP
