# created with PyMOL 2.5.2
@<TRIPOS>MOLECULE
PARP14_7L9Y_TargetProtein
158 156 19              
SMALL
USER_CHARGES
@<TRIPOS>ATOM
1	   N	-25.460	-4.448	9.734	N.am	1	PHE1681	0.000	
2	  CA	-25.914	-4.944	11.050	C.3	1	PHE1681	0.000	
3	   C	-25.047	-6.143	11.427	C.2	1	PHE1681	0.000	
4	   O	-24.673	-6.916	10.548	O.2	1	PHE1681	0.000	
5	  CB	-27.412	-5.264	10.993	C.3	1	PHE1681	0.000	
6	  CG	-28.264	-4.050	10.713	C.2	1	PHE1681	0.000	
7	 CD1	-28.518	-3.132	11.717	C.2	1	PHE1681	0.000	
8	 CD2	-28.783	-3.802	9.450	C.2	1	PHE1681	0.000	
9	 CE1	-29.304	-2.012	11.477	C.2	1	PHE1681	0.000	
10	 CE2	-29.552	-2.668	9.202	C.2	1	PHE1681	0.000	
11	  CZ	-29.810	-1.770	10.218	C.2	1	PHE1681	0.000	
12	   N	-24.744	-6.285	12.713	N.am	2	HIS1682	0.000	
13	  CA	-24.015	-7.449	13.259	C.3	2	HIS1682	0.000	
14	   C	-24.675	-7.866	14.572	C.2	2	HIS1682	0.000	
15	   O	-24.529	-7.124	15.588	O.2	2	HIS1682	0.000	
16	  CB	-22.525	-7.125	13.414	C.3	2	HIS1682	0.000	
17	  CG	-21.753	-8.282	13.950	C.2	2	HIS1682	0.000	
18	 CD2	-21.333	-8.583	15.191	C.2	2	HIS1682	0.000	
19	 ND1	-21.401	-9.342	13.159	N.pl3	2	HIS1682	0.000	
20	 CE1	-20.767	-10.232	13.885	C.2	2	HIS1682	0.000	
21	 NE2	-20.703	-9.787	15.127	N.pl3	2	HIS1682	0.000	
22	   N	-25.390	-8.994	14.520	N.am	3	GLY1683	0.000	
23	  CA	-25.932	-9.687	15.703	C.3	3	GLY1683	0.000	
24	   C	-24.830	-10.405	16.441	C.2	3	GLY1683	0.000	
25	   O	-23.914	-10.858	15.783	O.2	3	GLY1683	0.000	
26	   N	-24.910	-10.465	17.767	N.am	4	THR1684	0.000	
27	  CA	-23.894	-11.111	18.644	C.3	4	THR1684	0.000	
28	   C	-24.507	-11.369	20.029	C.2	4	THR1684	0.000	
29	   O	-25.586	-10.824	20.308	O.2	4	THR1684	0.000	
30	  CB	-22.602	-10.280	18.667	C.3	4	THR1684	0.000	
31	 CG2	-22.738	-8.951	19.384	C.3	4	THR1684	0.000	
32	 OG1	-21.591	-11.113	19.238	O.3	4	THR1684	0.000	
33	   N	-23.860	-12.212	20.842	N.am	5	ASP1685	0.000	
34	  CA	-24.245	-12.475	22.259	C.3	5	ASP1685	0.000	
35	   C	-23.760	-11.305	23.134	C.2	5	ASP1685	0.000	
36	   O	-22.795	-10.616	22.754	O.2	5	ASP1685	0.000	
37	  CB	-23.720	-13.832	22.738	C.3	5	ASP1685	0.000	
38	  CG	-22.209	-13.908	22.855	C.2	5	ASP1685	0.000	
39	 OD1	-21.532	-13.666	21.850	O.co2	5	ASP1685	0.000	
40	 OD2	-21.722	-14.195	23.965	O.co2	5	ASP1685	0.000	
41	   N	-20.016	-10.912	23.976	N.am	6	SER1688	0.000	
42	  CA	-19.067	-10.413	22.955	C.3	6	SER1688	0.000	
43	   C	-19.010	-8.879	22.944	C.2	6	SER1688	0.000	
44	   O	-18.041	-8.339	22.369	O.2	6	SER1688	0.000	
45	  CB	-19.438	-10.958	21.631	C.3	6	SER1688	0.000	
46	  OG	-19.348	-12.382	21.647	O.3	6	SER1688	0.000	
47	   N	-12.052	-12.377	17.424	N.am	7	TYR1701	0.000	
48	  CA	-13.532	-12.295	17.258	C.3	7	TYR1701	0.000	
49	   C	-13.963	-13.033	15.980	C.2	7	TYR1701	0.000	
50	   O	-14.971	-13.764	16.005	O.2	7	TYR1701	0.000	
51	  CB	-14.073	-10.856	17.225	C.3	7	TYR1701	0.000	
52	  CG	-15.586	-10.838	17.208	C.2	7	TYR1701	0.000	
53	 CD1	-16.321	-11.297	18.294	C.2	7	TYR1701	0.000	
54	 CD2	-16.293	-10.468	16.074	C.2	7	TYR1701	0.000	
55	 CE1	-17.702	-11.384	18.249	C.2	7	TYR1701	0.000	
56	 CE2	-17.682	-10.495	16.036	C.2	7	TYR1701	0.000	
57	  CZ	-18.390	-10.949	17.134	C.2	7	TYR1701	0.000	
58	  OH	-19.751	-11.026	17.126	O.3	7	TYR1701	0.000	
59	   N	-14.847	-16.667	15.971	N.am	8	LYS1704	0.000	
60	  CA	-16.183	-17.025	16.516	C.3	8	LYS1704	0.000	
61	   C	-17.293	-16.904	15.452	C.2	8	LYS1704	0.000	
62	   O	-18.434	-17.308	15.754	O.2	8	LYS1704	0.000	
63	  CB	-16.472	-16.137	17.732	C.3	8	LYS1704	0.000	
64	  CG	-15.810	-16.621	19.014	C.3	8	LYS1704	0.000	
65	  CD	-14.493	-15.965	19.333	C.3	8	LYS1704	0.000	
66	  CE	-13.625	-16.769	20.277	C.3	8	LYS1704	0.000	
67	  NZ	-12.212	-16.336	20.186	N.4	8	LYS1704	0.000	
68	   N	-17.012	-16.331	14.275	N.am	9	ASN1705	0.000	
69	  CA	-18.009	-16.161	13.181	C.3	9	ASN1705	0.000	
70	   C	-18.085	-17.449	12.360	C.2	9	ASN1705	0.000	
71	   O	-17.246	-18.340	12.586	O.2	9	ASN1705	0.000	
72	  CB	-17.675	-14.977	12.279	C.3	9	ASN1705	0.000	
73	  CG	-18.061	-13.653	12.892	C.2	9	ASN1705	0.000	
74	 ND2	-17.438	-13.325	13.999	N.pl3	9	ASN1705	0.000	
75	 OD1	-18.903	-12.933	12.371	O.2	9	ASN1705	0.000	
76	   N	-19.040	-17.536	11.427	N.am	10	ALA1706	0.000	
77	  CA	-19.116	-18.611	10.403	C.3	10	ALA1706	0.000	
78	   C	-17.915	-18.484	9.456	C.2	10	ALA1706	0.000	
79	   O	-17.214	-17.450	9.516	O.2	10	ALA1706	0.000	
80	  CB	-20.422	-18.542	9.651	C.3	10	ALA1706	0.000	
81	   N	-18.240	-20.033	5.956	N.am	11	ALA1708	0.000	
82	  CA	-18.743	-20.494	4.637	C.3	11	ALA1708	0.000	
83	   C	-18.321	-19.550	3.499	C.2	11	ALA1708	0.000	
84	   O	-18.148	-20.062	2.376	O.2	11	ALA1708	0.000	
85	  CB	-20.242	-20.655	4.662	C.3	11	ALA1708	0.000	
86	   N	-18.799	-11.171	9.851	N.am	12	TYR1714	0.000	
87	  CA	-19.974	-11.172	8.944	C.3	12	TYR1714	0.000	
88	   C	-20.887	-9.992	9.296	C.2	12	TYR1714	0.000	
89	   O	-21.135	-9.741	10.471	O.2	12	TYR1714	0.000	
90	  CB	-20.666	-12.532	9.053	C.3	12	TYR1714	0.000	
91	  CG	-19.908	-13.627	8.347	C.2	12	TYR1714	0.000	
92	 CD1	-18.598	-13.934	8.680	C.2	12	TYR1714	0.000	
93	 CD2	-20.479	-14.319	7.292	C.2	12	TYR1714	0.000	
94	 CE1	-17.888	-14.917	8.005	C.2	12	TYR1714	0.000	
95	 CE2	-19.784	-15.303	6.608	C.2	12	TYR1714	0.000	
96	  CZ	-18.481	-15.599	6.957	C.2	12	TYR1714	0.000	
97	  OH	-17.804	-16.572	6.275	O.3	12	TYR1714	0.000	
98	   N	-21.351	-9.270	8.288	N.am	13	PHE1715	0.000	
99	  CA	-22.251	-8.096	8.407	C.3	13	PHE1715	0.000	
100	   C	-23.418	-8.280	7.428	C.2	13	PHE1715	0.000	
101	   O	-23.140	-8.568	6.263	O.2	13	PHE1715	0.000	
102	  CB	-21.465	-6.807	8.147	C.3	13	PHE1715	0.000	
103	  CG	-20.268	-6.640	9.044	C.2	13	PHE1715	0.000	
104	 CD1	-20.389	-6.053	10.289	C.2	13	PHE1715	0.000	
105	 CD2	-19.026	-7.108	8.665	C.2	13	PHE1715	0.000	
106	 CE1	-19.288	-5.925	11.120	C.2	13	PHE1715	0.000	
107	 CE2	-17.926	-6.974	9.501	C.2	13	PHE1715	0.000	
108	  CZ	-18.055	-6.369	10.724	C.2	13	PHE1715	0.000	
109	   N	-24.667	-8.142	7.885	N.am	14	ALA1716	0.000	
110	  CA	-25.888	-8.247	7.053	C.3	14	ALA1716	0.000	
111	   C	-26.279	-6.868	6.536	C.2	14	ALA1716	0.000	
112	   O	-26.025	-5.890	7.257	O.2	14	ALA1716	0.000	
113	  CB	-27.024	-8.856	7.837	C.3	14	ALA1716	0.000	
114	   N	-31.757	-10.178	9.287	N.am	15	TYR1721	0.000	
115	  CA	-30.779	-11.290	9.140	C.3	15	TYR1721	0.000	
116	   C	-30.018	-11.408	10.469	C.2	15	TYR1721	0.000	
117	   O	-29.979	-12.515	11.068	O.2	15	TYR1721	0.000	
118	  CB	-29.849	-11.045	7.942	C.3	15	TYR1721	0.000	
119	  CG	-29.102	-12.249	7.406	C.2	15	TYR1721	0.000	
120	 CD1	-28.271	-12.131	6.304	C.2	15	TYR1721	0.000	
121	 CD2	-29.229	-13.513	7.972	C.2	15	TYR1721	0.000	
122	 CE1	-27.573	-13.220	5.801	C.2	15	TYR1721	0.000	
123	 CE2	-28.550	-14.614	7.468	C.2	15	TYR1721	0.000	
124	  CZ	-27.716	-14.466	6.380	C.2	15	TYR1721	0.000	
125	  OH	-27.047	-15.531	5.868	O.3	15	TYR1721	0.000	
126	   N	-29.459	-10.279	10.926	N.am	16	SER1722	0.000	
127	  CA	-28.662	-10.140	12.171	C.3	16	SER1722	0.000	
128	   C	-29.536	-10.480	13.383	C.2	16	SER1722	0.000	
129	   O	-29.008	-11.043	14.362	O.2	16	SER1722	0.000	
130	  CB	-28.073	-8.746	12.282	C.3	16	SER1722	0.000	
131	  OG	-27.072	-8.538	11.293	O.3	16	SER1722	0.000	
132	   N	-29.675	-17.144	16.192	N.am	17	THR1726	0.000	
133	  CA	-28.352	-17.806	15.992	C.3	17	THR1726	0.000	
134	   C	-27.223	-16.782	16.199	C.2	17	THR1726	0.000	
135	   O	-26.150	-17.190	16.702	O.2	17	THR1726	0.000	
136	  CB	-28.265	-18.472	14.612	C.3	17	THR1726	0.000	
137	 CG2	-26.925	-19.122	14.337	C.3	17	THR1726	0.000	
138	 OG1	-29.306	-19.443	14.523	O.3	17	THR1726	0.000	
139	   N	-27.451	-15.514	15.833	N.am	18	TYR1727	0.000	
140	  CA	-26.411	-14.448	15.792	C.3	18	TYR1727	0.000	
141	   C	-26.554	-13.577	17.036	C.2	18	TYR1727	0.000	
142	   O	-25.658	-13.640	17.909	O.2	18	TYR1727	0.000	
143	  CB	-26.481	-13.656	14.476	C.3	18	TYR1727	0.000	
144	  CG	-26.650	-14.545	13.267	C.2	18	TYR1727	0.000	
145	 CD1	-25.824	-15.641	13.080	C.2	18	TYR1727	0.000	
146	 CD2	-27.662	-14.336	12.345	C.2	18	TYR1727	0.000	
147	 CE1	-25.980	-16.492	12.002	C.2	18	TYR1727	0.000	
148	 CE2	-27.833	-15.183	11.262	C.2	18	TYR1727	0.000	
149	  CZ	-26.991	-16.267	11.093	C.2	18	TYR1727	0.000	
150	  OH	-27.127	-17.117	10.040	O.3	18	TYR1727	0.000	
151	   N	-24.907	-10.007	2.584	N.am	19	LEU1782	0.000	
152	  CA	-23.894	-9.936	3.675	C.3	19	LEU1782	0.000	
153	   C	-22.498	-9.592	3.135	C.2	19	LEU1782	0.000	
154	   O	-22.250	-9.706	1.933	O.2	19	LEU1782	0.000	
155	  CB	-23.854	-11.270	4.425	C.3	19	LEU1782	0.000	
156	  CG	-23.286	-12.450	3.649	C.3	19	LEU1782	0.000	
157	 CD1	-21.765	-12.512	3.737	C.3	19	LEU1782	0.000	
158	 CD2	-23.888	-13.756	4.151	C.3	19	LEU1782	0.000	
@<TRIPOS>BOND
1 1 2 1
2 2 3 1
3 2 5 1
4 3 4 2
5 3 12 1
6 5 6 1
7 6 7 2
8 6 8 1
9 7 9 1
10 8 10 2
11 9 11 2
12 10 11 1
13 12 13 1
14 13 14 1
15 13 16 1
16 14 15 2
17 14 22 1
18 16 17 1
19 17 18 2
20 17 19 1
21 18 21 1
22 19 20 2
23 20 21 1
24 22 23 1
25 23 24 1
26 24 25 2
27 24 26 1
28 26 27 1
29 27 28 1
30 27 30 1
31 28 29 2
32 28 33 1
33 30 31 1
34 30 32 1
35 33 34 1
36 34 35 1
37 34 37 1
38 35 36 2
39 37 38 1
40 38 39 2
41 38 40 1
42 41 42 1
43 42 43 1
44 42 45 1
45 43 44 2
46 45 46 1
47 47 48 1
48 48 49 1
49 48 51 1
50 49 50 2
51 51 52 1
52 52 53 2
53 52 54 1
54 53 55 1
55 54 56 2
56 55 57 2
57 56 57 1
58 57 58 1
59 59 60 1
60 60 61 1
61 60 63 1
62 61 62 2
63 61 68 1
64 63 64 1
65 64 65 1
66 65 66 1
67 66 67 1
68 68 69 1
69 69 70 1
70 69 72 1
71 70 71 2
72 70 76 1
73 72 73 1
74 73 74 1
75 73 75 2
76 76 77 1
77 77 78 1
78 77 80 1
79 78 79 2
80 81 82 1
81 82 83 1
82 82 85 1
83 83 84 2
84 86 87 1
85 87 88 1
86 87 90 1
87 88 89 2
88 88 98 1
89 90 91 1
90 91 92 2
91 91 93 1
92 92 94 1
93 93 95 2
94 94 96 2
95 95 96 1
96 96 97 1
97 98 99 1
98 99 100 1
99 99 102 1
100 100 101 2
101 100 109 1
102 102 103 1
103 103 104 2
104 103 105 1
105 104 106 1
106 105 107 2
107 106 108 2
108 107 108 1
109 109 110 1
110 110 111 1
111 110 113 1
112 111 112 2
113 114 115 1
114 115 116 1
115 115 118 1
116 116 117 2
117 116 126 1
118 118 119 1
119 119 120 2
120 119 121 1
121 120 122 1
122 121 123 2
123 122 124 2
124 123 124 1
125 124 125 1
126 126 127 1
127 127 128 1
128 127 130 1
129 128 129 2
130 130 131 1
131 132 133 1
132 133 134 1
133 133 136 1
134 134 135 2
135 134 139 1
136 136 137 1
137 136 138 1
138 139 140 1
139 140 141 1
140 140 143 1
141 141 142 2
142 143 144 1
143 144 145 2
144 144 146 1
145 145 147 1
146 146 148 2
147 147 149 2
148 148 149 1
149 149 150 1
150 151 152 1
151 152 153 1
152 152 155 1
153 153 154 2
154 155 156 1
155 156 157 1
156 156 158 1
@<TRIPOS>SUBSTRUCTURE
1	PHE1681	1	RESIDUE	1 B	PHE
2	HIS1682	12	RESIDUE	1 B	HIS
3	GLY1683	22	RESIDUE	1 B	GLY
4	THR1684	26	RESIDUE	1 B	THR
5	ASP1685	33	RESIDUE	1 B	ASP
6	SER1688	41	RESIDUE	1 B	SER
7	TYR1701	47	RESIDUE	1 B	TYR
8	LYS1704	59	RESIDUE	1 B	LYS
9	ASN1705	68	RESIDUE	1 B	ASN
10	ALA1706	76	RESIDUE	1 B	ALA
11	ALA1708	81	RESIDUE	1 B	ALA
12	TYR1714	86	RESIDUE	1 B	TYR
13	PHE1715	98	RESIDUE	1 B	PHE
14	ALA1716	109	RESIDUE	1 B	ALA
15	TYR1721	114	RESIDUE	1 B	TYR
16	SER1722	126	RESIDUE	1 B	SER
17	THR1726	132	RESIDUE	1 B	THR
18	TYR1727	139	RESIDUE	1 B	TYR
19	LEU1782	151	RESIDUE	1 B	LEU
