# created with PyMOL 2.5.2
@<TRIPOS>MOLECULE
ALK_6MX8_TargetProtein
169 158 23              
SMALL
USER_CHARGES
@<TRIPOS>ATOM
1	   N	2.897	18.107	1.282	N.am	1	LEU1122	0.000	
2	  CA	3.167	19.029	2.403	C.3	1	LEU1122	0.000	
3	   C	4.633	19.491	2.438	C.2	1	LEU1122	0.000	
4	   O	4.905	20.571	2.934	O.2	1	LEU1122	0.000	
5	  CB	2.822	18.335	3.722	C.3	1	LEU1122	0.000	
6	  CG	1.369	17.907	3.902	C.3	1	LEU1122	0.000	
7	 CD1	1.220	17.073	5.168	C.3	1	LEU1122	0.000	
8	 CD2	0.444	19.113	3.949	C.3	1	LEU1122	0.000	
9	   N	5.578	18.658	1.985	N.am	2	GLY1123	0.000	
10	  CA	6.987	19.065	1.877	C.3	2	GLY1123	0.000	
11	   C	7.916	17.872	1.760	C.2	2	GLY1123	0.000	
12	   O	7.456	16.748	1.604	O.2	2	GLY1123	0.000	
13	   N	9.228	18.123	1.854	N.am	3	HIS1124	0.000	
14	  CA	10.243	17.060	1.832	C.3	3	HIS1124	0.000	
15	   C	10.713	16.743	3.261	C.2	3	HIS1124	0.000	
16	   O	10.868	17.632	4.102	O.2	3	HIS1124	0.000	
17	  CB	11.388	17.443	0.885	C.3	3	HIS1124	0.000	
18	  CG	10.955	17.511	-0.540	C.2	3	HIS1124	0.000	
19	 CD2	10.540	18.549	-1.299	C.2	3	HIS1124	0.000	
20	 ND1	10.894	16.390	-1.342	N.pl3	3	HIS1124	0.000	
21	 CE1	10.474	16.737	-2.541	C.2	3	HIS1124	0.000	
22	 NE2	10.249	18.056	-2.541	N.pl3	3	HIS1124	0.000	
23	   N	6.209	14.057	2.131	N.am	4	VAL1130	0.000	
24	  CA	5.137	13.912	3.114	C.3	4	VAL1130	0.000	
25	   C	3.842	14.423	2.479	C.2	4	VAL1130	0.000	
26	   O	3.855	15.479	1.857	O.2	4	VAL1130	0.000	
27	  CB	5.456	14.695	4.406	C.3	4	VAL1130	0.000	
28	 CG1	4.446	14.422	5.513	C.3	4	VAL1130	0.000	
29	 CG2	6.871	14.426	4.896	C.3	4	VAL1130	0.000	
30	   N	-0.611	14.983	3.110	N.am	5	GLU1132	0.000	
31	  CA	-1.857	14.855	3.859	C.3	5	GLU1132	0.000	
32	   C	-2.595	13.623	3.327	C.2	5	GLU1132	0.000	
33	   O	-2.542	13.340	2.128	O.2	5	GLU1132	0.000	
34	  CB	-2.732	16.104	3.729	C.3	5	GLU1132	0.000	
35	  CG	-3.993	16.020	4.571	C.3	5	GLU1132	0.000	
36	  CD	-4.849	17.272	4.631	C.2	5	GLU1132	0.000	
37	 OE1	-4.300	18.379	4.492	O.co2	5	GLU1132	0.000	
38	 OE2	-6.067	17.128	4.830	O.co2	5	GLU1132	0.000	
39	   N	-0.784	12.507	8.334	N.am	6	ALA1148	0.000	
40	  CA	0.358	12.783	7.499	C.3	6	ALA1148	0.000	
41	   C	0.992	11.439	7.118	C.2	6	ALA1148	0.000	
42	   O	1.039	10.496	7.919	O.2	6	ALA1148	0.000	
43	  CB	1.341	13.689	8.214	C.3	6	ALA1148	0.000	
44	   N	4.342	9.791	5.442	N.am	7	LYS1150	0.000	
45	  CA	5.729	9.807	4.991	C.3	7	LYS1150	0.000	
46	   C	5.938	8.610	4.073	C.2	7	LYS1150	0.000	
47	   O	5.595	7.494	4.434	O.2	7	LYS1150	0.000	
48	  CB	6.724	9.745	6.153	C.3	7	LYS1150	0.000	
49	  CG	6.563	10.845	7.187	C.3	7	LYS1150	0.000	
50	  CD	7.781	11.050	8.063	C.3	7	LYS1150	0.000	
51	  CE	8.926	11.745	7.355	C.3	7	LYS1150	0.000	
52	  NZ	10.060	12.006	8.277	N.4	7	LYS1150	0.000	
53	   N	4.952	13.427	18.226	N.am	8	VAL1180	0.000	
54	  CA	3.987	13.113	17.180	C.3	8	VAL1180	0.000	
55	   C	3.635	11.632	17.277	C.2	8	VAL1180	0.000	
56	   O	4.522	10.788	17.381	O.2	8	VAL1180	0.000	
57	  CB	4.539	13.461	15.785	C.3	8	VAL1180	0.000	
58	 CG1	3.657	12.938	14.672	C.3	8	VAL1180	0.000	
59	 CG2	4.703	14.960	15.612	C.3	8	VAL1180	0.000	
60	   N	1.380	9.251	10.359	N.am	9	LEU1196	0.000	
61	  CA	1.623	10.082	11.511	C.3	9	LEU1196	0.000	
62	   C	0.433	11.014	11.732	C.2	9	LEU1196	0.000	
63	   O	-0.345	11.323	10.822	O.2	9	LEU1196	0.000	
64	  CB	2.913	10.868	11.279	C.3	9	LEU1196	0.000	
65	  CG	4.159	10.011	11.069	C.3	9	LEU1196	0.000	
66	 CD1	5.366	10.879	10.788	C.3	9	LEU1196	0.000	
67	 CD2	4.421	9.132	12.278	C.3	9	LEU1196	0.000	
68	   N	0.290	11.414	12.987	N.am	10	GLU1197	0.000	
69	  CA	-0.586	12.464	13.389	C.3	10	GLU1197	0.000	
70	   C	-0.422	13.671	12.457	C.2	10	GLU1197	0.000	
71	   O	0.693	14.169	12.262	O.2	10	GLU1197	0.000	
72	  CB	-0.193	12.805	14.828	C.3	10	GLU1197	0.000	
73	  CG	-0.904	13.995	15.431	C.3	10	GLU1197	0.000	
74	  CD	-0.526	14.208	16.886	C.2	10	GLU1197	0.000	
75	 OE1	0.482	13.617	17.342	O.co2	10	GLU1197	0.000	
76	 OE2	-1.226	14.967	17.560	O.co2	10	GLU1197	0.000	
77	   N	-1.530	14.169	11.909	N.am	11	LEU1198	0.000	
78	  CA	-1.478	15.358	11.058	C.3	11	LEU1198	0.000	
79	   C	-1.324	16.599	11.941	C.2	11	LEU1198	0.000	
80	   O	-2.131	16.856	12.792	O.2	11	LEU1198	0.000	
81	  CB	-2.746	15.489	10.219	C.3	11	LEU1198	0.000	
82	  CG	-2.733	16.680	9.264	C.3	11	LEU1198	0.000	
83	 CD1	-1.603	16.562	8.247	C.3	11	LEU1198	0.000	
84	 CD2	-4.069	16.821	8.567	C.3	11	LEU1198	0.000	
85	   N	-0.266	17.361	11.709	N.am	12	MET1199	0.000	
86	  CA	0.010	18.543	12.475	C.3	12	MET1199	0.000	
87	   C	-0.309	19.748	11.574	C.2	12	MET1199	0.000	
88	   O	0.517	20.173	10.766	O.2	12	MET1199	0.000	
89	  CB	1.478	18.517	12.908	C.3	12	MET1199	0.000	
90	  CG	1.818	17.264	13.717	C.3	12	MET1199	0.000	
91	  SD	1.045	17.328	15.348	S.3	12	MET1199	0.000	
92	  CE	2.056	18.593	16.113	C.3	12	MET1199	0.000	
93	   N	-1.538	20.255	11.708	N.am	13	ALA1200	0.000	
94	  CA	-2.138	21.208	10.746	C.3	13	ALA1200	0.000	
95	   C	-1.459	22.585	10.807	C.2	13	ALA1200	0.000	
96	   O	-1.555	23.357	9.850	O.2	13	ALA1200	0.000	
97	  CB	-3.623	21.322	10.987	C.3	13	ALA1200	0.000	
98	   N	1.704	22.966	10.782	N.am	14	GLY1202	0.000	
99	  CA	2.961	22.829	10.046	C.3	14	GLY1202	0.000	
100	   C	4.183	22.755	10.956	C.2	14	GLY1202	0.000	
101	   O	4.067	22.653	12.178	O.2	14	GLY1202	0.000	
102	   N	5.366	22.799	10.326	N.am	15	ASP1203	0.000	
103	  CA	6.660	22.867	11.004	C.3	15	ASP1203	0.000	
104	   C	6.802	24.249	11.639	C.2	15	ASP1203	0.000	
105	   O	6.260	25.244	11.148	O.2	15	ASP1203	0.000	
106	  CB	7.833	22.572	10.067	C.3	15	ASP1203	0.000	
107	  CG	8.058	23.661	9.035	C.2	15	ASP1203	0.000	
108	 OD1	7.182	23.822	8.147	O.co2	15	ASP1203	0.000	
109	 OD2	9.062	24.385	9.174	O.co2	15	ASP1203	0.000	
110	   N	8.623	27.261	9.691	N.am	16	SER1206	0.000	
111	  CA	7.734	27.924	8.729	C.3	16	SER1206	0.000	
112	   C	6.670	28.735	9.462	C.2	16	SER1206	0.000	
113	   O	6.344	29.856	9.039	O.2	16	SER1206	0.000	
114	  CB	7.077	26.934	7.814	C.3	16	SER1206	0.000	
115	  OG	8.049	26.068	7.257	O.3	16	SER1206	0.000	
116	   N	6.093	32.679	8.971	N.am	17	GLU1210	0.000	
117	  CA	4.862	33.074	8.343	C.3	17	GLU1210	0.000	
118	   C	3.945	33.819	9.316	C.2	17	GLU1210	0.000	
119	   O	3.134	34.598	8.854	O.2	17	GLU1210	0.000	
120	  CB	4.153	31.861	7.743	C.3	17	GLU1210	0.000	
121	  CG	4.538	31.615	6.294	C.3	17	GLU1210	0.000	
122	  CD	4.389	30.179	5.817	C.2	17	GLU1210	0.000	
123	 OE1	3.247	29.762	5.533	O.co2	17	GLU1210	0.000	
124	 OE2	5.417	29.483	5.729	O.co2	17	GLU1210	0.000	
125	   N	12.987	23.184	12.651	N.am	18	ARG1253	0.000	
126	  CA	12.551	22.428	11.414	C.3	18	ARG1253	0.000	
127	   C	12.035	21.012	11.758	C.2	18	ARG1253	0.000	
128	   O	11.376	20.356	10.946	O.2	18	ARG1253	0.000	
129	  CB	13.710	22.358	10.403	C.3	18	ARG1253	0.000	
130	  CG	14.880	21.495	10.864	C.3	18	ARG1253	0.000	
131	  CD	16.078	21.387	9.931	C.3	18	ARG1253	0.000	
132	  NE	17.220	20.808	10.657	N.pl3	18	ARG1253	0.000	
133	  CZ	18.141	21.532	11.304	C.cat	18	ARG1253	0.000	
134	 NH1	18.159	22.846	11.165	N.pl3	18	ARG1253	0.000	
135	 NH2	19.037	20.960	12.091	N.pl3	18	ARG1253	0.000	
136	   N	12.325	20.520	12.969	N.am	19	ASN1254	0.000	
137	  CA	11.983	19.152	13.360	C.3	19	ASN1254	0.000	
138	   C	10.789	19.148	14.330	C.2	19	ASN1254	0.000	
139	   O	10.382	18.091	14.784	O.2	19	ASN1254	0.000	
140	  CB	13.222	18.441	13.913	C.3	19	ASN1254	0.000	
141	  CG	14.255	18.173	12.838	C.2	19	ASN1254	0.000	
142	 ND2	15.535	18.215	13.188	N.pl3	19	ASN1254	0.000	
143	 OD1	13.887	17.928	11.691	O.2	19	ASN1254	0.000	
144	   N	10.230	20.327	14.618	N.am	20	CYS1255	0.000	
145	  CA	9.077	20.501	15.495	C.3	20	CYS1255	0.000	
146	   C	7.842	20.903	14.689	C.2	20	CYS1255	0.000	
147	   O	7.960	21.594	13.676	O.2	20	CYS1255	0.000	
148	  CB	9.323	21.606	16.507	C.3	20	CYS1255	0.000	
149	  SG	10.683	21.205	17.630	S.3	20	CYS1255	0.000	
150	   N	6.666	20.493	15.172	N.am	21	LEU1256	0.000	
151	  CA	5.384	20.689	14.463	C.3	21	LEU1256	0.000	
152	   C	4.345	21.231	15.443	C.2	21	LEU1256	0.000	
153	   O	4.457	21.019	16.656	O.2	21	LEU1256	0.000	
154	  CB	4.892	19.362	13.884	C.3	21	LEU1256	0.000	
155	  CG	5.823	18.684	12.892	C.3	21	LEU1256	0.000	
156	 CD1	5.650	17.177	12.958	C.3	21	LEU1256	0.000	
157	 CD2	5.578	19.190	11.480	C.3	21	LEU1256	0.000	
158	   N	8.762	16.016	15.950	N.am	22	GLY1269	0.000	
159	  CA	8.168	15.392	14.765	C.3	22	GLY1269	0.000	
160	   C	9.082	14.443	14.008	C.2	22	GLY1269	0.000	
161	   O	8.607	13.437	13.491	O.2	22	GLY1269	0.000	
162	   N	10.371	14.779	13.888	N.am	23	ASP1270	0.000	
163	  CA	11.335	14.041	13.063	C.3	23	ASP1270	0.000	
164	   C	12.440	13.487	13.975	C.2	23	ASP1270	0.000	
165	   O	12.898	14.171	14.927	O.2	23	ASP1270	0.000	
166	  CB	11.868	14.954	11.960	C.3	23	ASP1270	0.000	
167	  CG	12.980	14.370	11.103	C.2	23	ASP1270	0.000	
168	 OD1	14.117	14.288	11.594	O.co2	23	ASP1270	0.000	
169	 OD2	12.702	14.023	9.943	O.co2	23	ASP1270	0.000	
@<TRIPOS>BOND
1 1 2 1
2 2 3 1
3 2 5 1
4 3 4 2
5 3 9 1
6 5 6 1
7 6 7 1
8 6 8 1
9 9 10 1
10 10 11 1
11 11 12 2
12 11 13 1
13 13 14 1
14 14 15 1
15 14 17 1
16 15 16 2
17 17 18 1
18 18 19 2
19 18 20 1
20 19 22 1
21 20 21 2
22 21 22 1
23 23 24 1
24 24 25 1
25 24 27 1
26 25 26 2
27 27 28 1
28 27 29 1
29 30 31 1
30 31 32 1
31 31 34 1
32 32 33 2
33 34 35 1
34 35 36 1
35 36 37 2
36 36 38 1
37 39 40 1
38 40 41 1
39 40 43 1
40 41 42 2
41 44 45 1
42 45 46 1
43 45 48 1
44 46 47 2
45 48 49 1
46 49 50 1
47 50 51 1
48 51 52 1
49 53 54 1
50 54 55 1
51 54 57 1
52 55 56 2
53 57 58 1
54 57 59 1
55 60 61 1
56 61 62 1
57 61 64 1
58 62 63 2
59 62 68 1
60 64 65 1
61 65 66 1
62 65 67 1
63 68 69 1
64 69 70 1
65 69 72 1
66 70 71 2
67 70 77 1
68 72 73 1
69 73 74 1
70 74 75 2
71 74 76 1
72 77 78 1
73 78 79 1
74 78 81 1
75 79 80 2
76 79 85 1
77 81 82 1
78 82 83 1
79 82 84 1
80 85 86 1
81 86 87 1
82 86 89 1
83 87 88 2
84 87 93 1
85 89 90 1
86 90 91 1
87 91 92 1
88 93 94 1
89 94 95 1
90 94 97 1
91 95 96 2
92 98 99 1
93 99 100 1
94 100 101 2
95 100 102 1
96 102 103 1
97 103 104 1
98 103 106 1
99 104 105 2
100 106 107 1
101 107 108 2
102 107 109 1
103 110 111 1
104 111 112 1
105 111 114 1
106 112 113 2
107 114 115 1
108 116 117 1
109 117 118 1
110 117 120 1
111 118 119 2
112 120 121 1
113 121 122 1
114 122 123 2
115 122 124 1
116 125 126 1
117 126 127 1
118 126 129 1
119 127 128 2
120 127 136 1
121 129 130 1
122 130 131 1
123 131 132 1
124 132 133 1
125 133 134 2
126 133 135 1
127 136 137 1
128 137 138 1
129 137 140 1
130 138 139 2
131 138 144 1
132 140 141 1
133 141 142 1
134 141 143 2
135 144 145 1
136 145 146 1
137 145 148 1
138 146 147 2
139 146 150 1
140 148 149 1
141 150 151 1
142 151 152 1
143 151 154 1
144 152 153 2
145 154 155 1
146 155 156 1
147 155 157 1
148 158 159 1
149 159 160 1
150 160 161 2
151 160 162 1
152 162 163 1
153 163 164 1
154 163 166 1
155 164 165 2
156 166 167 1
157 167 168 2
158 167 169 1
@<TRIPOS>SUBSTRUCTURE
1	LEU1122	1	RESIDUE	1 B	LEU
2	GLY1123	9	RESIDUE	1 B	GLY
3	HIS1124	13	RESIDUE	1 B	HIS
4	VAL1130	23	RESIDUE	1 B	VAL
5	GLU1132	30	RESIDUE	1 B	GLU
6	ALA1148	39	RESIDUE	1 B	ALA
7	LYS1150	44	RESIDUE	1 B	LYS
8	VAL1180	53	RESIDUE	1 B	VAL
9	LEU1196	60	RESIDUE	1 B	LEU
10	GLU1197	68	RESIDUE	1 B	GLU
11	LEU1198	77	RESIDUE	1 B	LEU
12	MET1199	85	RESIDUE	1 B	MET
13	ALA1200	93	RESIDUE	1 B	ALA
14	GLY1202	98	RESIDUE	1 B	GLY
15	ASP1203	102	RESIDUE	1 B	ASP
16	SER1206	110	RESIDUE	1 B	SER
17	GLU1210	116	RESIDUE	1 B	GLU
18	ARG1253	125	RESIDUE	1 B	ARG
19	ASN1254	136	RESIDUE	1 B	ASN
20	CYS1255	144	RESIDUE	1 B	CYS
21	LEU1256	150	RESIDUE	1 B	LEU
22	GLY1269	158	RESIDUE	1 B	GLY
23	ASP1270	162	RESIDUE	1 B	ASP
