# created with PyMOL 2.5.2
@<TRIPOS>MOLECULE
BRD4_5UVY_TargetProtein
119 118 13              
SMALL
USER_CHARGES
@<TRIPOS>ATOM
1	   N	13.216	2.208	19.956	N.am	1	TRP374	0.000	
2	  CA	12.042	3.034	19.649	C.3	1	TRP374	0.000	
3	   C	12.352	4.400	18.945	C.2	1	TRP374	0.000	
4	   O	11.572	4.728	18.051	O.2	1	TRP374	0.000	
5	  CB	11.123	3.228	20.868	C.3	1	TRP374	0.000	
6	  CG	11.689	4.092	21.950	C.2	1	TRP374	0.000	
7	 CD1	12.451	3.692	23.007	C.2	1	TRP374	0.000	
8	 CD2	11.544	5.509	22.072	C.2	1	TRP374	0.000	
9	 CE2	12.266	5.907	23.218	C.2	1	TRP374	0.000	
10	 CE3	10.902	6.492	21.299	C.2	1	TRP374	0.000	
11	 NE1	12.796	4.774	23.777	N.pl3	1	TRP374	0.000	
12	 CZ2	12.351	7.245	23.623	C.2	1	TRP374	0.000	
13	 CZ3	10.979	7.815	21.706	C.2	1	TRP374	0.000	
14	 CH2	11.705	8.183	22.847	C.2	1	TRP374	0.000	
15	   N	13.446	5.182	19.200	N.am	2	PRO375	0.000	
16	  CA	13.622	6.432	18.425	C.3	2	PRO375	0.000	
17	   C	13.957	6.224	16.942	C.2	2	PRO375	0.000	
18	   O	13.939	7.184	16.179	O.2	2	PRO375	0.000	
19	  CB	14.767	7.153	19.148	C.3	2	PRO375	0.000	
20	  CG	14.948	6.438	20.448	C.3	2	PRO375	0.000	
21	  CD	14.523	5.036	20.203	C.3	2	PRO375	0.000	
22	   N	14.247	4.975	16.534	N.am	3	PHE376	0.000	
23	  CA	14.620	4.612	15.162	C.3	3	PHE376	0.000	
24	   C	13.492	3.920	14.401	C.2	3	PHE376	0.000	
25	   O	13.644	3.619	13.219	O.2	3	PHE376	0.000	
26	  CB	15.915	3.767	15.164	C.3	3	PHE376	0.000	
27	  CG	16.970	4.370	16.060	C.2	3	PHE376	0.000	
28	 CD1	17.775	5.413	15.611	C.2	3	PHE376	0.000	
29	 CD2	17.094	3.965	17.385	C.2	3	PHE376	0.000	
30	 CE1	18.706	6.013	16.459	C.2	3	PHE376	0.000	
31	 CE2	18.019	4.576	18.234	C.2	3	PHE376	0.000	
32	  CZ	18.807	5.604	17.768	C.2	3	PHE376	0.000	
33	   N	12.419	10.649	11.552	N.am	4	VAL380	0.000	
34	  CA	12.607	11.732	12.522	C.3	4	VAL380	0.000	
35	   C	11.584	12.827	12.187	C.2	4	VAL380	0.000	
36	   O	11.479	13.233	11.028	O.2	4	VAL380	0.000	
37	  CB	14.073	12.268	12.540	C.3	4	VAL380	0.000	
38	 CG1	14.214	13.515	13.418	C.3	4	VAL380	0.000	
39	 CG2	15.054	11.189	12.993	C.3	4	VAL380	0.000	
40	   N	14.277	20.165	16.492	N.am	5	LEU387	0.000	
41	  CA	14.616	19.466	15.248	C.3	5	LEU387	0.000	
42	   C	14.488	20.357	14.001	C.2	5	LEU387	0.000	
43	   O	14.396	19.840	12.885	O.2	5	LEU387	0.000	
44	  CB	13.730	18.193	15.098	C.3	5	LEU387	0.000	
45	  CG	14.064	16.905	15.899	C.3	5	LEU387	0.000	
46	 CD1	15.486	16.423	15.660	C.3	5	LEU387	0.000	
47	 CD2	13.749	17.033	17.376	C.3	5	LEU387	0.000	
48	   N	17.472	19.830	11.680	N.am	6	TYR390	0.000	
49	  CA	17.696	18.440	11.271	C.3	6	TYR390	0.000	
50	   C	17.916	18.274	9.764	C.2	6	TYR390	0.000	
51	   O	18.866	17.600	9.377	O.2	6	TYR390	0.000	
52	  CB	16.591	17.497	11.784	C.3	6	TYR390	0.000	
53	  CG	16.957	16.032	11.644	C.2	6	TYR390	0.000	
54	 CD1	17.807	15.415	12.559	C.2	6	TYR390	0.000	
55	 CD2	16.477	15.272	10.583	C.2	6	TYR390	0.000	
56	 CE1	18.173	14.077	12.418	C.2	6	TYR390	0.000	
57	 CE2	16.831	13.932	10.434	C.2	6	TYR390	0.000	
58	  CZ	17.680	13.339	11.354	C.2	6	TYR390	0.000	
59	  OH	18.030	12.023	11.201	O.3	6	TYR390	0.000	
60	   N	22.359	9.701	13.235	N.am	7	CYS429	0.000	
61	  CA	22.186	9.938	14.655	C.3	7	CYS429	0.000	
62	   C	23.473	10.442	15.282	C.2	7	CYS429	0.000	
63	   O	23.418	11.401	16.042	O.2	7	CYS429	0.000	
64	  CB	21.657	8.694	15.362	C.3	7	CYS429	0.000	
65	  SG	21.398	8.914	17.138	S.3	7	CYS429	0.000	
66	   N	24.143	14.209	13.773	N.am	8	TYR432	0.000	
67	  CA	23.249	15.266	14.236	C.3	8	TYR432	0.000	
68	   C	23.352	15.589	15.728	C.2	8	TYR432	0.000	
69	   O	23.418	16.760	16.093	O.2	8	TYR432	0.000	
70	  CB	21.785	14.961	13.846	C.3	8	TYR432	0.000	
71	  CG	20.814	16.009	14.346	C.2	8	TYR432	0.000	
72	 CD1	20.778	17.281	13.780	C.2	8	TYR432	0.000	
73	 CD2	19.979	15.752	15.428	C.2	8	TYR432	0.000	
74	 CE1	19.926	18.269	14.273	C.2	8	TYR432	0.000	
75	 CE2	19.122	16.730	15.927	C.2	8	TYR432	0.000	
76	  CZ	19.096	17.987	15.346	C.2	8	TYR432	0.000	
77	  OH	18.254	18.955	15.839	O.3	8	TYR432	0.000	
78	   N	23.315	14.568	16.583	N.am	9	ASN433	0.000	
79	  CA	23.278	14.734	18.031	C.3	9	ASN433	0.000	
80	   C	24.624	14.938	18.719	C.2	9	ASN433	0.000	
81	   O	25.629	14.417	18.233	O.2	9	ASN433	0.000	
82	  CB	22.562	13.550	18.653	C.3	9	ASN433	0.000	
83	  CG	21.176	13.367	18.125	C.2	9	ASN433	0.000	
84	 ND2	21.016	12.423	17.217	N.pl3	9	ASN433	0.000	
85	 OD1	20.244	14.067	18.515	O.2	9	ASN433	0.000	
86	   N	24.374	12.926	24.152	N.am	10	HIE437	0.000	
87	  CA	22.919	12.770	24.039	C.3	10	HIE437	0.000	
88	   C	22.476	11.336	24.323	C.2	10	HIE437	0.000	
89	   O	23.184	10.392	23.973	O.2	10	HIE437	0.000	
90	  CB	22.428	13.211	22.655	C.3	10	HIE437	0.000	
91	  CG	21.007	13.684	22.638	C.2	10	HIE437	0.000	
92	 CD2	20.516	14.931	22.454	C.2	10	HIE437	0.000	
93	 ND1	19.946	12.804	22.801	N.2	10	HIE437	0.000	
94	 CE1	18.851	13.543	22.715	C.2	10	HIE437	0.000	
95	 NE2	19.144	14.829	22.504	N.pl3	10	HIE437	0.000	
96	   N	21.313	11.187	24.984	N.am	11	GLU438	0.000	
97	  CA	20.692	9.913	25.368	C.3	11	GLU438	0.000	
98	   C	20.458	9.002	24.148	C.2	11	GLU438	0.000	
99	   O	20.664	7.792	24.248	O.2	11	GLU438	0.000	
100	  CB	19.354	10.197	26.075	C.3	11	GLU438	0.000	
101	  CG	18.707	9.007	26.769	C.3	11	GLU438	0.000	
102	  CD	17.337	9.264	27.376	C.2	11	GLU438	0.000	
103	 OE1	16.999	10.442	27.636	O.co2	11	GLU438	0.000	
104	 OE2	16.606	8.275	27.611	O.co2	11	GLU438	0.000	
105	   N	20.032	9.591	23.010	N.am	12	VAL439	0.000	
106	  CA	19.719	8.884	21.762	C.3	12	VAL439	0.000	
107	   C	20.990	8.264	21.122	C.2	12	VAL439	0.000	
108	   O	20.890	7.210	20.493	O.2	12	VAL439	0.000	
109	  CB	18.888	9.771	20.788	C.3	12	VAL439	0.000	
110	 CG1	19.756	10.766	20.024	C.3	12	VAL439	0.000	
111	 CG2	18.049	8.925	19.834	C.3	12	VAL439	0.000	
112	   N	21.612	5.011	22.873	N.am	13	MET442	0.000	
113	  CA	20.592	4.090	22.383	C.3	13	MET442	0.000	
114	   C	20.962	3.586	20.981	C.2	13	MET442	0.000	
115	   O	20.806	2.398	20.706	O.2	13	MET442	0.000	
116	  CB	19.214	4.769	22.387	C.3	13	MET442	0.000	
117	  CG	18.713	5.068	23.778	C.3	13	MET442	0.000	
118	  SD	17.419	6.319	23.774	S.3	13	MET442	0.000	
119	  CE	16.023	5.322	23.872	C.3	13	MET442	0.000	
@<TRIPOS>BOND
1 1 2 1
2 2 3 1
3 2 5 1
4 3 4 2
5 3 15 1
6 5 6 1
7 6 7 2
8 6 8 1
9 7 11 1
10 8 9 2
11 8 10 1
12 9 12 1
13 10 13 2
14 9 11 1
15 12 14 2
16 13 14 1
17 15 16 1
18 15 21 1
19 16 17 1
20 16 19 1
21 17 18 2
22 17 22 1
23 19 20 1
24 20 21 1
25 22 23 1
26 23 24 1
27 23 26 1
28 24 25 2
29 26 27 1
30 27 28 2
31 27 29 1
32 28 30 1
33 29 31 2
34 30 32 2
35 31 32 1
36 33 34 1
37 34 35 1
38 34 37 1
39 35 36 2
40 37 38 1
41 37 39 1
42 40 41 1
43 41 42 1
44 41 44 1
45 42 43 2
46 44 45 1
47 45 46 1
48 45 47 1
49 48 49 1
50 49 50 1
51 49 52 1
52 50 51 2
53 52 53 1
54 53 54 2
55 53 55 1
56 54 56 1
57 55 57 2
58 56 58 2
59 57 58 1
60 58 59 1
61 60 61 1
62 61 62 1
63 61 64 1
64 62 63 2
65 64 65 1
66 66 67 1
67 67 68 1
68 67 70 1
69 68 69 2
70 68 78 1
71 70 71 1
72 71 72 2
73 71 73 1
74 72 74 1
75 73 75 2
76 74 76 2
77 75 76 1
78 76 77 1
79 78 79 1
80 79 80 1
81 79 82 1
82 80 81 2
83 82 83 1
84 83 84 1
85 83 85 2
86 86 87 1
87 87 88 1
88 87 90 1
89 88 89 2
90 88 96 1
91 90 91 1
92 91 92 2
93 91 93 1
94 92 95 1
95 93 94 2
96 94 95 1
97 96 97 1
98 97 98 1
99 97 100 1
100 98 99 2
101 98 105 1
102 100 101 1
103 101 102 1
104 102 103 2
105 102 104 1
106 105 106 1
107 106 107 1
108 106 109 1
109 107 108 2
110 109 110 1
111 109 111 1
112 112 113 1
113 113 114 1
114 113 116 1
115 114 115 2
116 116 117 1
117 117 118 1
118 118 119 1
@<TRIPOS>SUBSTRUCTURE
1	TRP374	1	RESIDUE	1 B	TRP
2	PRO375	15	RESIDUE	1 B	PRO
3	PHE376	22	RESIDUE	1 B	PHE
4	VAL380	33	RESIDUE	1 B	VAL
5	LEU387	40	RESIDUE	1 B	LEU
6	TYR390	48	RESIDUE	1 B	TYR
7	CYS429	60	RESIDUE	1 B	CYS
8	TYR432	66	RESIDUE	1 B	TYR
9	ASN433	78	RESIDUE	1 B	ASN
10	HIE437	86	RESIDUE	1 B	HIE
11	GLU438	96	RESIDUE	1 B	GLU
12	VAL439	105	RESIDUE	1 B	VAL
13	MET442	112	RESIDUE	1 B	MET
