# created with PyMOL 2.5.2
@<TRIPOS>MOLECULE
BRD4_5UVY_TargetProtein
135 135 15              
SMALL
USER_CHARGES
@<TRIPOS>ATOM
1	   N	13.216	2.208	19.956	N.am	1	TRP374	0.000	
2	  CA	12.042	3.034	19.649	C.3	1	TRP374	0.000	
3	   C	12.352	4.400	18.945	C.2	1	TRP374	0.000	
4	   O	11.572	4.728	18.051	O.2	1	TRP374	0.000	
5	  CB	11.123	3.228	20.868	C.3	1	TRP374	0.000	
6	  CG	11.689	4.092	21.950	C.2	1	TRP374	0.000	
7	 CD1	12.451	3.692	23.007	C.2	1	TRP374	0.000	
8	 CD2	11.544	5.509	22.072	C.2	1	TRP374	0.000	
9	 CE2	12.266	5.907	23.218	C.2	1	TRP374	0.000	
10	 CE3	10.902	6.492	21.299	C.2	1	TRP374	0.000	
11	 NE1	12.796	4.774	23.777	N.pl3	1	TRP374	0.000	
12	 CZ2	12.351	7.245	23.623	C.2	1	TRP374	0.000	
13	 CZ3	10.979	7.815	21.706	C.2	1	TRP374	0.000	
14	 CH2	11.705	8.183	22.847	C.2	1	TRP374	0.000	
15	   N	13.446	5.182	19.200	N.am	2	PRO375	0.000	
16	  CA	13.622	6.432	18.425	C.3	2	PRO375	0.000	
17	   C	13.957	6.224	16.942	C.2	2	PRO375	0.000	
18	   O	13.939	7.184	16.179	O.2	2	PRO375	0.000	
19	  CB	14.767	7.153	19.148	C.3	2	PRO375	0.000	
20	  CG	14.948	6.438	20.448	C.3	2	PRO375	0.000	
21	  CD	14.523	5.036	20.203	C.3	2	PRO375	0.000	
22	   N	14.247	4.975	16.534	N.am	3	PHE376	0.000	
23	  CA	14.620	4.612	15.162	C.3	3	PHE376	0.000	
24	   C	13.492	3.920	14.401	C.2	3	PHE376	0.000	
25	   O	13.644	3.619	13.219	O.2	3	PHE376	0.000	
26	  CB	15.915	3.767	15.164	C.3	3	PHE376	0.000	
27	  CG	16.970	4.370	16.060	C.2	3	PHE376	0.000	
28	 CD1	17.775	5.413	15.611	C.2	3	PHE376	0.000	
29	 CD2	17.094	3.965	17.385	C.2	3	PHE376	0.000	
30	 CE1	18.706	6.013	16.459	C.2	3	PHE376	0.000	
31	 CE2	18.019	4.576	18.234	C.2	3	PHE376	0.000	
32	  CZ	18.807	5.604	17.768	C.2	3	PHE376	0.000	
33	   N	10.424	5.086	13.400	N.am	4	LYS378	0.000	
34	  CA	9.774	5.923	12.395	C.3	4	LYS378	0.000	
35	   C	10.642	7.093	11.959	C.2	4	LYS378	0.000	
36	   O	11.563	7.445	12.696	O.2	4	LYS378	0.000	
37	  CB	8.423	6.437	12.958	C.3	4	LYS378	0.000	
38	  CG	7.374	5.353	13.225	C.3	4	LYS378	0.000	
39	  CD	6.744	4.802	11.937	C.3	4	LYS378	0.000	
40	  CE	5.842	3.617	12.197	C.3	4	LYS378	0.000	
41	  NZ	5.309	3.043	10.931	N.4	4	LYS378	0.000	
42	   N	10.390	7.717	10.770	N.am	5	PRO379	0.000	
43	  CA	11.216	8.873	10.368	C.3	5	PRO379	0.000	
44	   C	11.271	9.959	11.442	C.2	5	PRO379	0.000	
45	   O	10.302	10.137	12.186	O.2	5	PRO379	0.000	
46	  CB	10.519	9.390	9.105	C.3	5	PRO379	0.000	
47	  CG	9.764	8.218	8.575	C.3	5	PRO379	0.000	
48	  CD	9.338	7.431	9.766	C.3	5	PRO379	0.000	
49	   N	12.419	10.649	11.552	N.am	6	VAL380	0.000	
50	  CA	12.607	11.732	12.522	C.3	6	VAL380	0.000	
51	   C	11.584	12.827	12.187	C.2	6	VAL380	0.000	
52	   O	11.479	13.233	11.028	O.2	6	VAL380	0.000	
53	  CB	14.073	12.268	12.540	C.3	6	VAL380	0.000	
54	 CG1	14.214	13.515	13.418	C.3	6	VAL380	0.000	
55	 CG2	15.054	11.189	12.993	C.3	6	VAL380	0.000	
56	   N	14.277	20.165	16.492	N.am	7	LEU387	0.000	
57	  CA	14.616	19.466	15.248	C.3	7	LEU387	0.000	
58	   C	14.488	20.357	14.001	C.2	7	LEU387	0.000	
59	   O	14.396	19.840	12.885	O.2	7	LEU387	0.000	
60	  CB	13.730	18.193	15.098	C.3	7	LEU387	0.000	
61	  CG	14.064	16.905	15.899	C.3	7	LEU387	0.000	
62	 CD1	15.486	16.423	15.660	C.3	7	LEU387	0.000	
63	 CD2	13.749	17.033	17.376	C.3	7	LEU387	0.000	
64	   N	17.472	19.830	11.680	N.am	8	TYR390	0.000	
65	  CA	17.696	18.440	11.271	C.3	8	TYR390	0.000	
66	   C	17.916	18.274	9.764	C.2	8	TYR390	0.000	
67	   O	18.866	17.600	9.377	O.2	8	TYR390	0.000	
68	  CB	16.591	17.497	11.784	C.3	8	TYR390	0.000	
69	  CG	16.957	16.032	11.644	C.2	8	TYR390	0.000	
70	 CD1	17.807	15.415	12.559	C.2	8	TYR390	0.000	
71	 CD2	16.477	15.272	10.583	C.2	8	TYR390	0.000	
72	 CE1	18.173	14.077	12.418	C.2	8	TYR390	0.000	
73	 CE2	16.831	13.932	10.434	C.2	8	TYR390	0.000	
74	  CZ	17.680	13.339	11.354	C.2	8	TYR390	0.000	
75	  OH	18.030	12.023	11.201	O.3	8	TYR390	0.000	
76	   N	22.359	9.701	13.235	N.am	9	CYS429	0.000	
77	  CA	22.186	9.938	14.655	C.3	9	CYS429	0.000	
78	   C	23.473	10.442	15.282	C.2	9	CYS429	0.000	
79	   O	23.418	11.401	16.042	O.2	9	CYS429	0.000	
80	  CB	21.657	8.694	15.362	C.3	9	CYS429	0.000	
81	  SG	21.398	8.914	17.138	S.3	9	CYS429	0.000	
82	   N	24.143	14.209	13.773	N.am	10	TYR432	0.000	
83	  CA	23.249	15.266	14.236	C.3	10	TYR432	0.000	
84	   C	23.352	15.589	15.728	C.2	10	TYR432	0.000	
85	   O	23.418	16.760	16.093	O.2	10	TYR432	0.000	
86	  CB	21.785	14.961	13.846	C.3	10	TYR432	0.000	
87	  CG	20.814	16.009	14.346	C.2	10	TYR432	0.000	
88	 CD1	20.778	17.281	13.780	C.2	10	TYR432	0.000	
89	 CD2	19.979	15.752	15.428	C.2	10	TYR432	0.000	
90	 CE1	19.926	18.269	14.273	C.2	10	TYR432	0.000	
91	 CE2	19.122	16.730	15.927	C.2	10	TYR432	0.000	
92	  CZ	19.096	17.987	15.346	C.2	10	TYR432	0.000	
93	  OH	18.254	18.955	15.839	O.3	10	TYR432	0.000	
94	   N	23.315	14.568	16.583	N.am	11	ASN433	0.000	
95	  CA	23.278	14.734	18.031	C.3	11	ASN433	0.000	
96	   C	24.624	14.938	18.719	C.2	11	ASN433	0.000	
97	   O	25.629	14.417	18.233	O.2	11	ASN433	0.000	
98	  CB	22.562	13.550	18.653	C.3	11	ASN433	0.000	
99	  CG	21.176	13.367	18.125	C.2	11	ASN433	0.000	
100	 ND2	21.016	12.423	17.217	N.pl3	11	ASN433	0.000	
101	 OD1	20.244	14.067	18.515	O.2	11	ASN433	0.000	
102	   N	24.374	12.926	24.152	N.am	12	HIE437	0.000	
103	  CA	22.919	12.770	24.039	C.3	12	HIE437	0.000	
104	   C	22.476	11.336	24.323	C.2	12	HIE437	0.000	
105	   O	23.184	10.392	23.973	O.2	12	HIE437	0.000	
106	  CB	22.428	13.211	22.655	C.3	12	HIE437	0.000	
107	  CG	21.007	13.684	22.638	C.2	12	HIE437	0.000	
108	 CD2	20.516	14.931	22.454	C.2	12	HIE437	0.000	
109	 ND1	19.946	12.804	22.801	N.2	12	HIE437	0.000	
110	 CE1	18.851	13.543	22.715	C.2	12	HIE437	0.000	
111	 NE2	19.144	14.829	22.504	N.pl3	12	HIE437	0.000	
112	   N	21.313	11.187	24.984	N.am	13	GLU438	0.000	
113	  CA	20.692	9.913	25.368	C.3	13	GLU438	0.000	
114	   C	20.458	9.002	24.148	C.2	13	GLU438	0.000	
115	   O	20.664	7.792	24.248	O.2	13	GLU438	0.000	
116	  CB	19.354	10.197	26.075	C.3	13	GLU438	0.000	
117	  CG	18.707	9.007	26.769	C.3	13	GLU438	0.000	
118	  CD	17.337	9.264	27.376	C.2	13	GLU438	0.000	
119	 OE1	16.999	10.442	27.636	O.co2	13	GLU438	0.000	
120	 OE2	16.606	8.275	27.611	O.co2	13	GLU438	0.000	
121	   N	20.032	9.591	23.010	N.am	14	VAL439	0.000	
122	  CA	19.719	8.884	21.762	C.3	14	VAL439	0.000	
123	   C	20.990	8.264	21.122	C.2	14	VAL439	0.000	
124	   O	20.890	7.210	20.493	O.2	14	VAL439	0.000	
125	  CB	18.888	9.771	20.788	C.3	14	VAL439	0.000	
126	 CG1	19.756	10.766	20.024	C.3	14	VAL439	0.000	
127	 CG2	18.049	8.925	19.834	C.3	14	VAL439	0.000	
128	   N	21.612	5.011	22.873	N.am	15	MET442	0.000	
129	  CA	20.592	4.090	22.383	C.3	15	MET442	0.000	
130	   C	20.962	3.586	20.981	C.2	15	MET442	0.000	
131	   O	20.806	2.398	20.706	O.2	15	MET442	0.000	
132	  CB	19.214	4.769	22.387	C.3	15	MET442	0.000	
133	  CG	18.713	5.068	23.778	C.3	15	MET442	0.000	
134	  SD	17.419	6.319	23.774	S.3	15	MET442	0.000	
135	  CE	16.023	5.322	23.872	C.3	15	MET442	0.000	
@<TRIPOS>BOND
1 1 2 1
2 2 3 1
3 2 5 1
4 3 4 2
5 3 15 1
6 5 6 1
7 6 7 2
8 6 8 1
9 7 11 1
10 8 9 2
11 8 10 1
12 9 12 1
13 10 13 2
14 9 11 1
15 12 14 2
16 13 14 1
17 15 16 1
18 15 21 1
19 16 17 1
20 16 19 1
21 17 18 2
22 17 22 1
23 19 20 1
24 20 21 1
25 22 23 1
26 23 24 1
27 23 26 1
28 24 25 2
29 26 27 1
30 27 28 2
31 27 29 1
32 28 30 1
33 29 31 2
34 30 32 2
35 31 32 1
36 33 34 1
37 34 35 1
38 34 37 1
39 35 36 2
40 35 42 1
41 37 38 1
42 38 39 1
43 39 40 1
44 40 41 1
45 42 43 1
46 42 48 1
47 43 44 1
48 43 46 1
49 44 45 2
50 44 49 1
51 46 47 1
52 47 48 1
53 49 50 1
54 50 51 1
55 50 53 1
56 51 52 2
57 53 54 1
58 53 55 1
59 56 57 1
60 57 58 1
61 57 60 1
62 58 59 2
63 60 61 1
64 61 62 1
65 61 63 1
66 64 65 1
67 65 66 1
68 65 68 1
69 66 67 2
70 68 69 1
71 69 70 2
72 69 71 1
73 70 72 1
74 71 73 2
75 72 74 2
76 73 74 1
77 74 75 1
78 76 77 1
79 77 78 1
80 77 80 1
81 78 79 2
82 80 81 1
83 82 83 1
84 83 84 1
85 83 86 1
86 84 85 2
87 84 94 1
88 86 87 1
89 87 88 2
90 87 89 1
91 88 90 1
92 89 91 2
93 90 92 2
94 91 92 1
95 92 93 1
96 94 95 1
97 95 96 1
98 95 98 1
99 96 97 2
100 98 99 1
101 99 100 1
102 99 101 2
103 102 103 1
104 103 104 1
105 103 106 1
106 104 105 2
107 104 112 1
108 106 107 1
109 107 108 2
110 107 109 1
111 108 111 1
112 109 110 2
113 110 111 1
114 112 113 1
115 113 114 1
116 113 116 1
117 114 115 2
118 114 121 1
119 116 117 1
120 117 118 1
121 118 119 2
122 118 120 1
123 121 122 1
124 122 123 1
125 122 125 1
126 123 124 2
127 125 126 1
128 125 127 1
129 128 129 1
130 129 130 1
131 129 132 1
132 130 131 2
133 132 133 1
134 133 134 1
135 134 135 1
@<TRIPOS>SUBSTRUCTURE
1	TRP374	1	RESIDUE	1 B	TRP
2	PRO375	15	RESIDUE	1 B	PRO
3	PHE376	22	RESIDUE	1 B	PHE
4	LYS378	33	RESIDUE	1 B	LYS
5	PRO379	42	RESIDUE	1 B	PRO
6	VAL380	49	RESIDUE	1 B	VAL
7	LEU387	56	RESIDUE	1 B	LEU
8	TYR390	64	RESIDUE	1 B	TYR
9	CYS429	76	RESIDUE	1 B	CYS
10	TYR432	82	RESIDUE	1 B	TYR
11	ASN433	94	RESIDUE	1 B	ASN
12	HIE437	102	RESIDUE	1 B	HIE
13	GLU438	112	RESIDUE	1 B	GLU
14	VAL439	121	RESIDUE	1 B	VAL
15	MET442	128	RESIDUE	1 B	MET
