# created with PyMOL 2.5.2
@<TRIPOS>MOLECULE
GSK_4ACD_TargetProtein
173 162 21              
SMALL
USER_CHARGES
@<TRIPOS>ATOM
1	   N	20.435	-29.094	13.088	N.am	1	LYS60	0.000	
2	  CA	21.559	-28.543	13.859	C.3	1	LYS60	0.000	
3	   C	21.305	-27.045	14.050	C.2	1	LYS60	0.000	
4	   O	21.077	-26.369	13.062	O.2	1	LYS60	0.000	
5	  CB	22.873	-28.773	13.049	C.3	1	LYS60	0.000	
6	  CG	24.166	-28.302	13.710	C.3	1	LYS60	0.000	
7	  CD	25.101	-27.595	12.724	C.3	1	LYS60	0.000	
8	  CE	26.150	-28.492	12.091	C.3	1	LYS60	0.000	
9	  NZ	27.017	-27.760	11.114	N.4	1	LYS60	0.000	
10	   N	22.147	-23.310	14.291	N.am	2	ILE62	0.000	
11	  CA	23.189	-22.445	13.739	C.3	2	ILE62	0.000	
12	   C	23.186	-21.035	14.313	C.2	2	ILE62	0.000	
13	   O	24.150	-20.287	14.118	O.2	2	ILE62	0.000	
14	  CB	23.292	-22.503	12.184	C.3	2	ILE62	0.000	
15	 CG1	22.055	-21.886	11.469	C.3	2	ILE62	0.000	
16	 CG2	23.610	-23.940	11.743	C.3	2	ILE62	0.000	
17	 CD1	21.959	-22.063	9.922	C.3	2	ILE62	0.000	
18	   N	14.616	-13.049	18.415	N.am	3	PHE67	0.000	
19	  CA	13.626	-13.658	17.517	C.3	3	PHE67	0.000	
20	   C	13.236	-15.103	17.834	C.2	3	PHE67	0.000	
21	   O	12.051	-15.434	17.796	O.2	3	PHE67	0.000	
22	  CB	14.107	-13.563	16.051	C.3	3	PHE67	0.000	
23	  CG	15.365	-14.345	15.746	C.2	3	PHE67	0.000	
24	 CD1	16.624	-13.790	15.961	C.2	3	PHE67	0.000	
25	 CD2	15.292	-15.633	15.242	C.2	3	PHE67	0.000	
26	 CE1	17.783	-14.531	15.717	C.2	3	PHE67	0.000	
27	 CE2	16.448	-16.381	15.024	C.2	3	PHE67	0.000	
28	  CZ	17.691	-15.826	15.261	C.2	3	PHE67	0.000	
29	   N	17.579	-20.385	14.639	N.am	4	VAL70	0.000	
30	  CA	17.821	-20.724	13.230	C.3	4	VAL70	0.000	
31	   C	18.545	-22.089	13.227	C.2	4	VAL70	0.000	
32	   O	19.564	-22.253	13.908	O.2	4	VAL70	0.000	
33	  CB	18.589	-19.645	12.422	C.3	4	VAL70	0.000	
34	 CG1	18.673	-20.028	10.949	C.3	4	VAL70	0.000	
35	 CG2	17.914	-18.287	12.554	C.3	4	VAL70	0.000	
36	   N	19.888	-25.620	10.803	N.am	5	GLN72	0.000	
37	  CA	20.382	-26.066	9.512	C.3	5	GLN72	0.000	
38	   C	19.865	-27.490	9.432	C.2	5	GLN72	0.000	
39	   O	19.802	-28.178	10.453	O.2	5	GLN72	0.000	
40	  CB	21.903	-26.072	9.466	C.3	5	GLN72	0.000	
41	  CG	22.474	-26.456	8.106	C.3	5	GLN72	0.000	
42	  CD	23.766	-27.190	8.269	C.2	5	GLN72	0.000	
43	 NE2	23.699	-28.509	8.240	N.pl3	5	GLN72	0.000	
44	 OE1	24.835	-26.585	8.345	O.2	5	GLN72	0.000	
45	   N	17.920	-23.622	5.772	N.am	6	ALA83	0.000	
46	  CA	17.889	-23.030	7.101	C.3	6	ALA83	0.000	
47	   C	16.427	-22.948	7.507	C.2	6	ALA83	0.000	
48	   O	15.574	-22.652	6.677	O.2	6	ALA83	0.000	
49	  CB	18.506	-21.641	7.091	C.3	6	ALA83	0.000	
50	   N	14.158	-20.978	10.193	N.am	7	LYS85	0.000	
51	  CA	14.042	-19.892	11.168	C.3	7	LYS85	0.000	
52	   C	12.727	-20.137	11.924	C.2	7	LYS85	0.000	
53	   O	11.654	-20.055	11.342	O.2	7	LYS85	0.000	
54	  CB	14.084	-18.531	10.465	C.3	7	LYS85	0.000	
55	  CG	13.915	-17.372	11.435	C.3	7	LYS85	0.000	
56	  CD	13.840	-15.979	10.798	C.3	7	LYS85	0.000	
57	  CE	13.744	-14.982	11.920	C.3	7	LYS85	0.000	
58	  NZ	14.171	-13.623	11.513	N.4	7	LYS85	0.000	
59	   N	7.123	-10.765	8.896	N.am	8	GLU97	0.000	
60	  CA	8.272	-11.271	8.163	C.3	8	GLU97	0.000	
61	   C	7.824	-12.266	7.092	C.2	8	GLU97	0.000	
62	   O	8.298	-12.191	5.960	O.2	8	GLU97	0.000	
63	  CB	9.294	-11.877	9.133	C.3	8	GLU97	0.000	
64	  CG	10.602	-12.322	8.489	C.3	8	GLU97	0.000	
65	  CD	11.623	-12.937	9.426	C.2	8	GLU97	0.000	
66	 OE1	11.294	-13.146	10.615	O.co2	8	GLU97	0.000	
67	 OE2	12.758	-13.205	8.973	O.co2	8	GLU97	0.000	
68	   N	17.797	-14.322	0.437	N.am	9	VAL110	0.000	
69	  CA	17.546	-15.682	0.880	C.3	9	VAL110	0.000	
70	   C	16.079	-15.999	0.591	C.2	9	VAL110	0.000	
71	   O	15.194	-15.237	0.951	O.2	9	VAL110	0.000	
72	  CB	18.001	-15.750	2.373	C.3	9	VAL110	0.000	
73	 CG1	16.853	-15.804	3.377	C.3	9	VAL110	0.000	
74	 CG2	19.040	-16.826	2.598	C.3	9	VAL110	0.000	
75	   N	14.221	-21.670	4.571	N.am	10	LEU132	0.000	
76	  CA	14.986	-20.742	3.730	C.3	10	LEU132	0.000	
77	   C	16.187	-21.366	3.083	C.2	10	LEU132	0.000	
78	   O	16.664	-22.404	3.524	O.2	10	LEU132	0.000	
79	  CB	15.534	-19.605	4.636	C.3	10	LEU132	0.000	
80	  CG	14.593	-18.816	5.524	C.3	10	LEU132	0.000	
81	 CD1	15.361	-18.116	6.614	C.3	10	LEU132	0.000	
82	 CD2	13.840	-17.787	4.728	C.3	10	LEU132	0.000	
83	   N	16.777	-20.639	2.138	N.am	11	ASP133	0.000	
84	  CA	18.053	-20.999	1.526	C.3	11	ASP133	0.000	
85	   C	19.130	-20.959	2.643	C.2	11	ASP133	0.000	
86	   O	19.065	-20.094	3.531	O.2	11	ASP133	0.000	
87	  CB	18.450	-19.945	0.467	C.3	11	ASP133	0.000	
88	  CG	17.683	-19.960	-0.845	C.2	11	ASP133	0.000	
89	 OD1	17.010	-20.977	-1.135	O.co2	11	ASP133	0.000	
90	 OD2	17.845	-19.004	-1.633	O.co2	11	ASP133	0.000	
91	   N	20.094	-21.906	2.602	N.am	12	TYR134	0.000	
92	  CA	21.221	-21.934	3.529	C.3	12	TYR134	0.000	
93	   C	22.439	-21.400	2.778	C.2	12	TYR134	0.000	
94	   O	22.763	-21.869	1.687	O.2	12	TYR134	0.000	
95	  CB	21.477	-23.344	4.089	C.3	12	TYR134	0.000	
96	  CG	22.747	-23.440	4.904	C.2	12	TYR134	0.000	
97	 CD1	22.778	-23.030	6.237	C.2	12	TYR134	0.000	
98	 CD2	23.935	-23.888	4.332	C.2	12	TYR134	0.000	
99	 CE1	23.963	-23.050	6.974	C.2	12	TYR134	0.000	
100	 CE2	25.130	-23.904	5.058	C.2	12	TYR134	0.000	
101	  CZ	25.134	-23.497	6.382	C.2	12	TYR134	0.000	
102	  OH	26.293	-23.540	7.107	O.3	12	TYR134	0.000	
103	   N	23.070	-20.366	3.321	N.am	13	VAL135	0.000	
104	  CA	24.263	-19.774	2.707	C.3	13	VAL135	0.000	
105	   C	25.316	-19.898	3.799	C.2	13	VAL135	0.000	
106	   O	25.011	-19.591	4.946	O.2	13	VAL135	0.000	
107	  CB	24.029	-18.361	2.138	C.3	13	VAL135	0.000	
108	 CG1	25.213	-17.914	1.325	C.3	13	VAL135	0.000	
109	 CG2	22.787	-18.328	1.263	C.3	13	VAL135	0.000	
110	   N	26.473	-20.542	3.506	N.am	14	PRO136	0.000	
111	  CA	27.379	-20.973	4.579	C.3	14	PRO136	0.000	
112	   C	28.142	-19.968	5.430	C.2	14	PRO136	0.000	
113	   O	28.392	-20.261	6.599	O.2	14	PRO136	0.000	
114	  CB	28.304	-21.956	3.860	C.3	14	PRO136	0.000	
115	  CG	28.331	-21.474	2.464	C.3	14	PRO136	0.000	
116	  CD	26.930	-21.073	2.203	C.3	14	PRO136	0.000	
117	   N	28.604	-18.856	4.838	N.am	15	GLU137	0.000	
118	  CA	29.375	-17.826	5.539	C.3	15	GLU137	0.000	
119	   C	28.615	-16.490	5.726	C.2	15	GLU137	0.000	
120	   O	27.460	-16.363	5.304	O.2	15	GLU137	0.000	
121	  CB	30.750	-17.604	4.847	C.3	15	GLU137	0.000	
122	  CG	31.921	-18.392	5.438	C.3	15	GLU137	0.000	
123	  CD	32.257	-18.246	6.925	C.2	15	GLU137	0.000	
124	 OE1	31.654	-17.383	7.613	O.co2	15	GLU137	0.000	
125	 OE2	33.128	-19.011	7.406	O.co2	15	GLU137	0.000	
126	   N	29.269	-15.512	6.402	N.am	16	THR138	0.000	
127	  CA	28.762	-14.150	6.627	C.3	16	THR138	0.000	
128	   C	29.878	-13.125	6.357	C.2	16	THR138	0.000	
129	   O	31.059	-13.444	6.534	O.2	16	THR138	0.000	
130	  CB	28.164	-13.954	8.023	C.3	16	THR138	0.000	
131	 CG2	27.184	-15.049	8.428	C.3	16	THR138	0.000	
132	 OG1	29.214	-13.843	8.971	O.3	16	THR138	0.000	
133	   N	31.990	-12.682	9.589	N.am	17	ARG141	0.000	
134	  CA	33.006	-13.703	9.801	C.3	17	ARG141	0.000	
135	   C	34.138	-13.584	8.791	C.2	17	ARG141	0.000	
136	   O	35.300	-13.657	9.183	O.2	17	ARG141	0.000	
137	  CB	32.399	-15.109	9.849	C.3	17	ARG141	0.000	
138	  CG	31.829	-15.430	11.234	C.3	17	ARG141	0.000	
139	  CD	31.232	-16.810	11.336	C.3	17	ARG141	0.000	
140	  NE	32.091	-17.775	12.030	N.pl3	17	ARG141	0.000	
141	  CZ	32.814	-18.721	11.430	C.cat	17	ARG141	0.000	
142	 NH1	32.796	-18.846	10.109	N.pl3	17	ARG141	0.000	
143	 NH2	33.558	-19.551	12.149	N.pl3	17	ARG141	0.000	
144	   N	23.964	-10.063	8.742	N.am	18	ASN186	0.000	
145	  CA	22.772	-10.272	7.907	C.3	18	ASN186	0.000	
146	   C	23.095	-10.378	6.396	C.2	18	ASN186	0.000	
147	   O	22.182	-10.377	5.582	O.2	18	ASN186	0.000	
148	  CB	21.730	-9.164	8.160	C.3	18	ASN186	0.000	
149	  CG	21.043	-9.294	9.483	C.2	18	ASN186	0.000	
150	 ND2	20.525	-8.203	9.980	N.pl3	18	ASN186	0.000	
151	 OD1	21.013	-10.356	10.103	O.2	18	ASN186	0.000	
152	   N	24.956	-12.867	3.992	N.am	19	LEU188	0.000	
153	  CA	25.492	-14.212	3.860	C.3	19	LEU188	0.000	
154	   C	26.290	-14.363	2.573	C.2	19	LEU188	0.000	
155	   O	25.975	-13.707	1.598	O.2	19	LEU188	0.000	
156	  CB	24.359	-15.221	3.879	C.3	19	LEU188	0.000	
157	  CG	23.369	-15.138	5.007	C.3	19	LEU188	0.000	
158	 CD1	22.227	-16.125	4.764	C.3	19	LEU188	0.000	
159	 CD2	24.033	-15.382	6.356	C.3	19	LEU188	0.000	
160	   N	19.696	-11.522	4.441	N.am	20	CYS199	0.000	
161	  CA	18.839	-12.316	5.311	C.3	20	CYS199	0.000	
162	   C	18.347	-11.499	6.492	C.2	20	CYS199	0.000	
163	   O	18.669	-10.315	6.608	O.2	20	CYS199	0.000	
164	  CB	19.500	-13.628	5.733	C.3	20	CYS199	0.000	
165	  SG	20.751	-13.464	7.025	S.3	20	CYS199	0.000	
166	   N	17.495	-12.115	7.311	N.am	21	ASP200	0.000	
167	  CA	16.868	-11.536	8.477	C.3	21	ASP200	0.000	
168	   C	15.899	-10.410	8.119	C.2	21	ASP200	0.000	
169	   O	16.274	-9.240	8.109	O.2	21	ASP200	0.000	
170	  CB	17.887	-11.143	9.562	C.3	21	ASP200	0.000	
171	  CG	17.289	-10.632	10.856	C.2	21	ASP200	0.000	
172	 OD1	16.083	-10.886	11.102	O.co2	21	ASP200	0.000	
173	 OD2	18.052	-10.102	11.685	O.co2	21	ASP200	0.000	
@<TRIPOS>BOND
1 1 2 1
2 2 3 1
3 2 5 1
4 3 4 2
5 5 6 1
6 6 7 1
7 7 8 1
8 8 9 1
9 10 11 1
10 11 12 1
11 11 14 1
12 12 13 2
13 14 15 1
14 14 16 1
15 15 17 1
16 18 19 1
17 19 20 1
18 19 22 1
19 20 21 2
20 22 23 1
21 23 24 2
22 23 25 1
23 24 26 1
24 25 27 2
25 26 28 2
26 27 28 1
27 29 30 1
28 30 31 1
29 30 33 1
30 31 32 2
31 33 34 1
32 33 35 1
33 36 37 1
34 37 38 1
35 37 40 1
36 38 39 2
37 40 41 1
38 41 42 1
39 42 43 1
40 42 44 2
41 45 46 1
42 46 47 1
43 46 49 1
44 47 48 2
45 50 51 1
46 51 52 1
47 51 54 1
48 52 53 2
49 54 55 1
50 55 56 1
51 56 57 1
52 57 58 1
53 59 60 1
54 60 61 1
55 60 63 1
56 61 62 2
57 63 64 1
58 64 65 1
59 65 66 2
60 65 67 1
61 68 69 1
62 69 70 1
63 69 72 1
64 70 71 2
65 72 73 1
66 72 74 1
67 75 76 1
68 76 77 1
69 76 79 1
70 77 78 2
71 77 83 1
72 79 80 1
73 80 81 1
74 80 82 1
75 83 84 1
76 84 85 1
77 84 87 1
78 85 86 2
79 85 91 1
80 87 88 1
81 88 89 2
82 88 90 1
83 91 92 1
84 92 93 1
85 92 95 1
86 93 94 2
87 93 103 1
88 95 96 1
89 96 97 2
90 96 98 1
91 97 99 1
92 98 100 2
93 99 101 2
94 100 101 1
95 101 102 1
96 103 104 1
97 104 105 1
98 104 107 1
99 105 106 2
100 105 110 1
101 107 108 1
102 107 109 1
103 110 111 1
104 110 116 1
105 111 112 1
106 111 114 1
107 112 113 2
108 112 117 1
109 114 115 1
110 115 116 1
111 117 118 1
112 118 119 1
113 118 121 1
114 119 120 2
115 119 126 1
116 121 122 1
117 122 123 1
118 123 124 2
119 123 125 1
120 126 127 1
121 127 128 1
122 127 130 1
123 128 129 2
124 130 131 1
125 130 132 1
126 133 134 1
127 134 135 1
128 134 137 1
129 135 136 2
130 137 138 1
131 138 139 1
132 139 140 1
133 140 141 1
134 141 142 2
135 141 143 1
136 144 145 1
137 145 146 1
138 145 148 1
139 146 147 2
140 148 149 1
141 149 150 1
142 149 151 2
143 152 153 1
144 153 154 1
145 153 156 1
146 154 155 2
147 156 157 1
148 157 158 1
149 157 159 1
150 160 161 1
151 161 162 1
152 161 164 1
153 162 163 2
154 162 166 1
155 164 165 1
156 166 167 1
157 167 168 1
158 167 170 1
159 168 169 2
160 170 171 1
161 171 172 2
162 171 173 1
@<TRIPOS>SUBSTRUCTURE
1	LYS60	1	RESIDUE	1 B	LYS
2	ILE62	10	RESIDUE	1 B	ILE
3	PHE67	18	RESIDUE	1 B	PHE
4	VAL70	29	RESIDUE	1 B	VAL
5	GLN72	36	RESIDUE	1 B	GLN
6	ALA83	45	RESIDUE	1 B	ALA
7	LYS85	50	RESIDUE	1 B	LYS
8	GLU97	59	RESIDUE	1 B	GLU
9	VAL110	68	RESIDUE	1 B	VAL
10	LEU132	75	RESIDUE	1 B	LEU
11	ASP133	83	RESIDUE	1 B	ASP
12	TYR134	91	RESIDUE	1 B	TYR
13	VAL135	103	RESIDUE	1 B	VAL
14	PRO136	110	RESIDUE	1 B	PRO
15	GLU137	117	RESIDUE	1 B	GLU
16	THR138	126	RESIDUE	1 B	THR
17	ARG141	133	RESIDUE	1 B	ARG
18	ASN186	144	RESIDUE	1 B	ASN
19	LEU188	152	RESIDUE	1 B	LEU
20	CYS199	160	RESIDUE	1 B	CYS
21	ASP200	166	RESIDUE	1 B	ASP
