# created with PyMOL 2.5.2
@<TRIPOS>MOLECULE
JAK2_6VN8_TargetProtein
151 143 21              
SMALL
USER_CHARGES
@<TRIPOS>ATOM
1	   N	53.516	-5.429	33.819	N.am	1	LEU855	0.000	
2	  CA	54.064	-6.714	33.396	C.3	1	LEU855	0.000	
3	   C	55.191	-6.543	32.395	C.2	1	LEU855	0.000	
4	   O	56.074	-7.393	32.316	O.2	1	LEU855	0.000	
5	  CB	52.973	-7.582	32.775	C.3	1	LEU855	0.000	
6	  CG	51.765	-7.929	33.638	C.3	1	LEU855	0.000	
7	 CD1	50.667	-8.553	32.816	C.3	1	LEU855	0.000	
8	 CD2	52.134	-8.845	34.828	C.3	1	LEU855	0.000	
9	   N	55.196	-5.448	31.654	N.am	2	GLY856	0.000	
10	  CA	56.244	-5.209	30.688	C.3	2	GLY856	0.000	
11	   C	56.209	-3.769	30.229	C.2	2	GLY856	0.000	
12	   O	55.161	-3.109	30.278	O.2	2	GLY856	0.000	
13	   N	57.352	-3.272	29.768	N.am	3	LYS857	0.000	
14	  CA	57.456	-1.893	29.309	C.3	3	LYS857	0.000	
15	   C	58.608	-1.780	28.326	C.2	3	LYS857	0.000	
16	   O	59.712	-2.239	28.624	O.2	3	LYS857	0.000	
17	  CB	57.711	-0.921	30.472	C.3	3	LYS857	0.000	
18	  CG	57.488	0.512	30.034	C.3	3	LYS857	0.000	
19	  CD	57.929	1.537	31.072	C.3	3	LYS857	0.000	
20	  CE	58.956	2.518	30.448	C.3	3	LYS857	0.000	
21	  NZ	58.435	3.373	29.303	N.4	3	LYS857	0.000	
22	   N	58.347	-1.217	27.148	N.am	4	GLY858	0.000	
23	  CA	59.442	-0.812	26.278	C.3	4	GLY858	0.000	
24	   C	59.272	0.655	25.972	C.2	4	GLY858	0.000	
25	   O	58.470	1.318	26.626	O.2	4	GLY858	0.000	
26	   N	55.456	1.160	24.093	N.am	5	GLY861	0.000	
27	  CA	54.377	0.345	24.636	C.3	5	GLY861	0.000	
28	   C	54.655	-0.263	25.993	C.2	5	GLY861	0.000	
29	   O	55.807	-0.438	26.404	O.2	5	GLY861	0.000	
30	   N	53.570	-0.653	26.665	N.am	6	SER862	0.000	
31	  CA	53.687	-1.342	27.937	C.3	6	SER862	0.000	
32	   C	52.439	-2.186	28.160	C.2	6	SER862	0.000	
33	   O	51.408	-2.000	27.508	O.2	6	SER862	0.000	
34	  CB	53.900	-0.357	29.099	C.3	6	SER862	0.000	
35	  OG	52.710	0.373	29.297	O.3	6	SER862	0.000	
36	   N	52.558	-3.132	29.085	N.am	7	VAL863	0.000	
37	  CA	51.486	-4.056	29.424	C.3	7	VAL863	0.000	
38	   C	51.300	-4.073	30.937	C.2	7	VAL863	0.000	
39	   O	52.267	-4.154	31.708	O.2	7	VAL863	0.000	
40	  CB	51.780	-5.471	28.874	C.3	7	VAL863	0.000	
41	 CG1	50.671	-6.408	29.227	C.3	7	VAL863	0.000	
42	 CG2	51.876	-5.429	27.389	C.3	7	VAL863	0.000	
43	   N	45.183	-8.661	30.936	N.am	8	ALA880	0.000	
44	  CA	46.381	-7.935	30.534	C.3	8	ALA880	0.000	
45	   C	45.989	-6.762	29.632	C.2	8	ALA880	0.000	
46	   O	45.168	-6.911	28.722	O.2	8	ALA880	0.000	
47	  CB	47.355	-8.867	29.804	C.3	8	ALA880	0.000	
48	   N	47.431	-3.648	27.200	N.am	9	LYS882	0.000	
49	  CA	48.543	-3.055	26.470	C.3	9	LYS882	0.000	
50	   C	48.174	-1.626	26.087	C.2	9	LYS882	0.000	
51	   O	47.055	-1.365	25.635	O.2	9	LYS882	0.000	
52	  CB	48.897	-3.857	25.202	C.3	9	LYS882	0.000	
53	  CG	50.202	-3.371	24.528	C.3	9	LYS882	0.000	
54	  CD	50.524	-4.130	23.232	C.3	9	LYS882	0.000	
55	  CE	51.898	-3.720	22.723	C.3	9	LYS882	0.000	
56	  NZ	52.280	-4.342	21.418	N.4	9	LYS882	0.000	
57	   N	48.086	-15.660	22.015	N.am	10	VAL911	0.000	
58	  CA	47.345	-15.069	23.131	C.3	10	VAL911	0.000	
59	   C	45.981	-14.541	22.661	C.2	10	VAL911	0.000	
60	   O	45.838	-14.027	21.544	O.2	10	VAL911	0.000	
61	  CB	48.196	-13.966	23.792	C.3	10	VAL911	0.000	
62	 CG1	48.381	-12.778	22.852	C.3	10	VAL911	0.000	
63	 CG2	47.583	-13.540	25.152	C.3	10	VAL911	0.000	
64	   N	43.645	-8.227	26.704	N.am	11	MET929	0.000	
65	  CA	44.000	-9.596	26.376	C.3	11	MET929	0.000	
66	   C	43.843	-10.483	27.604	C.2	11	MET929	0.000	
67	   O	43.790	-10.010	28.748	O.2	11	MET929	0.000	
68	  CB	45.440	-9.699	25.858	C.3	11	MET929	0.000	
69	  CG	45.739	-8.962	24.518	C.3	11	MET929	0.000	
70	  SD	47.493	-8.835	24.147	S.3	11	MET929	0.000	
71	  CE	47.955	-7.485	25.231	C.3	11	MET929	0.000	
72	   N	43.755	-11.790	27.366	N.am	12	GLU930	0.000	
73	  CA	43.816	-12.713	28.496	C.3	12	GLU930	0.000	
74	   C	45.159	-12.568	29.205	C.2	12	GLU930	0.000	
75	   O	46.202	-12.332	28.573	O.2	12	GLU930	0.000	
76	  CB	43.639	-14.154	28.025	C.3	12	GLU930	0.000	
77	  CG	44.806	-14.628	27.177	C.3	12	GLU930	0.000	
78	  CD	44.738	-16.101	26.736	C.2	12	GLU930	0.000	
79	 OE1	44.005	-16.918	27.344	O.co2	12	GLU930	0.000	
80	 OE2	45.438	-16.430	25.759	O.co2	12	GLU930	0.000	
81	   N	45.128	-12.729	30.539	N.am	13	TYR931	0.000	
82	  CA	46.325	-12.691	31.364	C.3	13	TYR931	0.000	
83	   C	46.887	-14.104	31.481	C.2	13	TYR931	0.000	
84	   O	46.169	-15.030	31.884	O.2	13	TYR931	0.000	
85	  CB	45.995	-12.140	32.758	C.3	13	TYR931	0.000	
86	  CG	47.081	-12.323	33.774	C.2	13	TYR931	0.000	
87	 CD1	48.269	-11.598	33.696	C.2	13	TYR931	0.000	
88	 CD2	46.921	-13.212	34.833	C.2	13	TYR931	0.000	
89	 CE1	49.276	-11.742	34.693	C.2	13	TYR931	0.000	
90	 CE2	47.919	-13.375	35.804	C.2	13	TYR931	0.000	
91	  CZ	49.098	-12.651	35.708	C.2	13	TYR931	0.000	
92	  OH	50.082	-12.810	36.668	O.3	13	TYR931	0.000	
93	   N	48.154	-14.267	31.153	N.am	14	LEU932	0.000	
94	  CA	48.754	-15.595	31.315	C.3	14	LEU932	0.000	
95	   C	49.633	-15.583	32.546	C.2	14	LEU932	0.000	
96	   O	50.525	-14.732	32.641	O.2	14	LEU932	0.000	
97	  CB	49.587	-15.982	30.085	C.3	14	LEU932	0.000	
98	  CG	48.776	-16.049	28.778	C.3	14	LEU932	0.000	
99	 CD1	49.587	-16.736	27.699	C.3	14	LEU932	0.000	
100	 CD2	47.476	-16.764	28.974	C.3	14	LEU932	0.000	
101	   N	53.945	-15.481	32.915	N.am	15	GLY935	0.000	
102	  CA	54.829	-14.435	32.374	C.3	15	GLY935	0.000	
103	   C	55.519	-14.896	31.104	C.2	15	GLY935	0.000	
104	   O	55.102	-15.866	30.454	O.2	15	GLY935	0.000	
105	   N	61.363	-13.382	24.676	N.am	16	ARG980	0.000	
106	  CA	60.713	-12.330	25.463	C.3	16	ARG980	0.000	
107	   C	59.296	-12.039	24.972	C.2	16	ARG980	0.000	
108	   O	58.504	-11.436	25.712	O.2	16	ARG980	0.000	
109	  CB	61.551	-11.037	25.461	C.3	16	ARG980	0.000	
110	  CG	61.558	-10.359	24.120	C.3	16	ARG980	0.000	
111	  CD	62.501	-9.154	24.059	C.3	16	ARG980	0.000	
112	  NE	62.711	-8.820	22.643	N.pl3	16	ARG980	0.000	
113	  CZ	63.744	-9.265	21.911	C.cat	16	ARG980	0.000	
114	 NH1	64.702	-10.018	22.469	N.pl3	16	ARG980	0.000	
115	 NH2	63.839	-8.953	20.618	N.pl3	16	ARG980	0.000	
116	   N	58.951	-12.449	23.751	N.am	17	ASN981	0.000	
117	  CA	57.606	-12.254	23.224	C.3	17	ASN981	0.000	
118	   C	56.785	-13.520	23.200	C.2	17	ASN981	0.000	
119	   O	55.763	-13.561	22.502	O.2	17	ASN981	0.000	
120	  CB	57.681	-11.682	21.819	C.3	17	ASN981	0.000	
121	  CG	58.234	-10.328	21.847	C.2	17	ASN981	0.000	
122	 ND2	59.074	-9.998	20.904	N.pl3	17	ASN981	0.000	
123	 OD1	57.973	-9.604	22.785	O.2	17	ASN981	0.000	
124	   N	57.229	-14.562	23.905	N.am	18	ILE982	0.000	
125	  CA	56.476	-15.799	24.082	C.3	18	ILE982	0.000	
126	   C	56.022	-15.830	25.533	C.2	18	ILE982	0.000	
127	   O	56.797	-15.489	26.444	O.2	18	ILE982	0.000	
128	  CB	57.329	-17.036	23.716	C.3	18	ILE982	0.000	
129	 CG1	57.893	-16.916	22.263	C.3	18	ILE982	0.000	
130	 CG2	56.517	-18.296	23.840	C.3	18	ILE982	0.000	
131	 CD1	56.844	-16.794	21.293	C.3	18	ILE982	0.000	
132	   N	54.769	-16.211	25.757	N.am	19	LEU983	0.000	
133	  CA	54.190	-16.228	27.095	C.3	19	LEU983	0.000	
134	   C	53.860	-17.654	27.497	C.2	19	LEU983	0.000	
135	   O	53.594	-18.518	26.663	O.2	19	LEU983	0.000	
136	  CB	52.897	-15.377	27.153	C.3	19	LEU983	0.000	
137	  CG	53.057	-13.896	26.786	C.3	19	LEU983	0.000	
138	 CD1	51.693	-13.215	26.679	C.3	19	LEU983	0.000	
139	 CD2	53.939	-13.189	27.822	C.3	19	LEU983	0.000	
140	   N	52.943	-13.959	22.172	N.am	20	GLY993	0.000	
141	  CA	52.250	-13.063	23.077	C.3	20	GLY993	0.000	
142	   C	52.179	-11.610	22.650	C.2	20	GLY993	0.000	
143	   O	51.410	-10.850	23.247	O.2	20	GLY993	0.000	
144	   N	52.931	-11.203	21.625	N.am	21	ASP994	0.000	
145	  CA	52.977	-9.802	21.224	C.3	21	ASP994	0.000	
146	   C	53.095	-9.705	19.721	C.2	21	ASP994	0.000	
147	   O	53.834	-10.485	19.122	O.2	21	ASP994	0.000	
148	  CB	54.167	-9.057	21.819	C.3	21	ASP994	0.000	
149	  CG	54.068	-7.543	21.601	C.2	21	ASP994	0.000	
150	 OD1	53.372	-6.861	22.401	O.co2	21	ASP994	0.000	
151	 OD2	54.680	-7.034	20.634	O.co2	21	ASP994	0.000	
@<TRIPOS>BOND
1 1 2 1
2 2 3 1
3 2 5 1
4 3 4 2
5 3 9 1
6 5 6 1
7 6 7 1
8 6 8 1
9 9 10 1
10 10 11 1
11 11 12 2
12 11 13 1
13 13 14 1
14 14 15 1
15 14 17 1
16 15 16 2
17 15 22 1
18 17 18 1
19 18 19 1
20 19 20 1
21 20 21 1
22 22 23 1
23 23 24 1
24 24 25 2
25 26 27 1
26 27 28 1
27 28 29 2
28 28 30 1
29 30 31 1
30 31 32 1
31 31 34 1
32 32 33 2
33 32 36 1
34 34 35 1
35 36 37 1
36 37 38 1
37 37 40 1
38 38 39 2
39 40 41 1
40 40 42 1
41 43 44 1
42 44 45 1
43 44 47 1
44 45 46 2
45 48 49 1
46 49 50 1
47 49 52 1
48 50 51 2
49 52 53 1
50 53 54 1
51 54 55 1
52 55 56 1
53 57 58 1
54 58 59 1
55 58 61 1
56 59 60 2
57 61 62 1
58 61 63 1
59 64 65 1
60 65 66 1
61 65 68 1
62 66 67 2
63 66 72 1
64 68 69 1
65 69 70 1
66 70 71 1
67 72 73 1
68 73 74 1
69 73 76 1
70 74 75 2
71 74 81 1
72 76 77 1
73 77 78 1
74 78 79 2
75 78 80 1
76 81 82 1
77 82 83 1
78 82 85 1
79 83 84 2
80 83 93 1
81 85 86 1
82 86 87 2
83 86 88 1
84 87 89 1
85 88 90 2
86 89 91 2
87 90 91 1
88 91 92 1
89 93 94 1
90 94 95 1
91 94 97 1
92 95 96 2
93 97 98 1
94 98 99 1
95 98 100 1
96 101 102 1
97 102 103 1
98 103 104 2
99 105 106 1
100 106 107 1
101 106 109 1
102 107 108 2
103 107 116 1
104 109 110 1
105 110 111 1
106 111 112 1
107 112 113 1
108 113 114 2
109 113 115 1
110 116 117 1
111 117 118 1
112 117 120 1
113 118 119 2
114 118 124 1
115 120 121 1
116 121 122 1
117 121 123 2
118 124 125 1
119 125 126 1
120 125 128 1
121 126 127 2
122 126 132 1
123 128 129 1
124 128 130 1
125 129 131 1
126 132 133 1
127 133 134 1
128 133 136 1
129 134 135 2
130 136 137 1
131 137 138 1
132 137 139 1
133 140 141 1
134 141 142 1
135 142 143 2
136 142 144 1
137 144 145 1
138 145 146 1
139 145 148 1
140 146 147 2
141 148 149 1
142 149 150 2
143 149 151 1
@<TRIPOS>SUBSTRUCTURE
1	LEU855	1	RESIDUE	1 B	LEU
2	GLY856	9	RESIDUE	1 B	GLY
3	LYS857	13	RESIDUE	1 B	LYS
4	GLY858	22	RESIDUE	1 B	GLY
5	GLY861	26	RESIDUE	1 B	GLY
6	SER862	30	RESIDUE	1 B	SER
7	VAL863	36	RESIDUE	1 B	VAL
8	ALA880	43	RESIDUE	1 B	ALA
9	LYS882	48	RESIDUE	1 B	LYS
10	VAL911	57	RESIDUE	1 B	VAL
11	MET929	64	RESIDUE	1 B	MET
12	GLU930	72	RESIDUE	1 B	GLU
13	TYR931	81	RESIDUE	1 B	TYR
14	LEU932	93	RESIDUE	1 B	LEU
15	GLY935	101	RESIDUE	1 B	GLY
16	ARG980	105	RESIDUE	1 B	ARG
17	ASN981	116	RESIDUE	1 B	ASN
18	ILE982	124	RESIDUE	1 B	ILE
19	LEU983	132	RESIDUE	1 B	LEU
20	GLY993	140	RESIDUE	1 B	GLY
21	ASP994	144	RESIDUE	1 B	ASP
