# created with PyMOL 2.5.2
@<TRIPOS>MOLECULE
PD_5N2D_TargetProtein
105 100 13              
SMALL
USER_CHARGES
@<TRIPOS>ATOM
1	   N	-5.293	4.521	-17.802	N.am	1	ILE54	0.000	
2	  CA	-4.517	5.621	-18.361	C.3	1	ILE54	0.000	
3	   C	-4.781	6.851	-17.507	C.2	1	ILE54	0.000	
4	   O	-5.939	7.250	-17.331	O.2	1	ILE54	0.000	
5	  CB	-4.888	5.926	-19.823	C.3	1	ILE54	0.000	
6	 CG1	-4.413	4.829	-20.764	C.3	1	ILE54	0.000	
7	 CG2	-4.300	7.269	-20.237	C.3	1	ILE54	0.000	
8	 CD1	-5.375	4.607	-21.901	C.3	1	ILE54	0.000	
9	   N	-3.719	7.460	-16.992	N.am	2	VAL55	0.000	
10	  CA	-3.831	8.657	-16.169	C.3	2	VAL55	0.000	
11	   C	-2.986	9.751	-16.809	C.2	2	VAL55	0.000	
12	   O	-1.755	9.640	-16.875	O.2	2	VAL55	0.000	
13	  CB	-3.397	8.421	-14.715	C.3	2	VAL55	0.000	
14	 CG1	-3.408	9.762	-13.966	C.3	2	VAL55	0.000	
15	 CG2	-4.295	7.410	-14.023	C.3	2	VAL55	0.000	
16	   N	-3.639	10.822	-17.238	N.am	3	TYR56	0.000	
17	  CA	-2.970	11.972	-17.815	C.3	3	TYR56	0.000	
18	   C	-3.192	13.191	-16.923	C.2	3	TYR56	0.000	
19	   O	-4.332	13.489	-16.543	O.2	3	TYR56	0.000	
20	  CB	-3.491	12.226	-19.230	C.3	3	TYR56	0.000	
21	  CG	-2.611	13.140	-20.004	C.2	3	TYR56	0.000	
22	 CD1	-2.844	14.509	-20.020	C.2	3	TYR56	0.000	
23	 CD2	-1.497	12.652	-20.678	C.2	3	TYR56	0.000	
24	 CE1	-2.007	15.377	-20.732	C.2	3	TYR56	0.000	
25	 CE2	-0.646	13.509	-21.394	C.2	3	TYR56	0.000	
26	  CZ	-0.916	14.870	-21.415	C.2	3	TYR56	0.000	
27	  OH	-0.113	15.741	-22.107	O.3	3	TYR56	0.000	
28	   N	2.163	19.113	-20.543	N.am	4	ASN63	0.000	
29	  CA	2.096	17.749	-20.034	C.3	4	ASN63	0.000	
30	   C	2.928	17.604	-18.767	C.2	4	ASN63	0.000	
31	   O	4.093	18.017	-18.717	O.2	4	ASN63	0.000	
32	  CB	2.576	16.741	-21.088	C.3	4	ASN63	0.000	
33	  CG	2.605	15.299	-20.561	C.2	4	ASN63	0.000	
34	 ND2	2.821	14.361	-21.451	N.pl3	4	ASN63	0.000	
35	 OD1	2.404	15.040	-19.380	O.2	4	ASN63	0.000	
36	   N	1.993	11.092	-17.820	N.am	5	GLN66	0.000	
37	  CA	1.513	10.256	-18.921	C.3	5	GLN66	0.000	
38	   C	1.701	8.806	-18.481	C.2	5	GLN66	0.000	
39	   O	2.782	8.237	-18.642	O.2	5	GLN66	0.000	
40	  CB	2.278	10.559	-20.195	C.3	5	GLN66	0.000	
41	  CG	1.462	10.438	-21.439	C.3	5	GLN66	0.000	
42	  CD	2.324	10.439	-22.682	C.2	5	GLN66	0.000	
43	 NE2	2.800	9.267	-23.080	N.pl3	5	GLN66	0.000	
44	 OE1	2.550	11.478	-23.280	O.2	5	GLN66	0.000	
45	   N	0.582	5.051	-18.815	N.am	6	VAL68	0.000	
46	  CA	-0.067	4.046	-19.645	C.3	6	VAL68	0.000	
47	   C	0.546	2.698	-19.324	C.2	6	VAL68	0.000	
48	   O	1.758	2.602	-19.097	O.2	6	VAL68	0.000	
49	  CB	0.087	4.358	-21.146	C.3	6	VAL68	0.000	
50	 CG1	-0.949	3.603	-21.961	C.3	6	VAL68	0.000	
51	 CG2	-0.024	5.828	-21.378	C.3	6	VAL68	0.000	
52	   N	7.133	13.594	-23.439	N.am	7	VAL76	0.000	
53	  CA	6.531	14.897	-23.644	C.3	7	VAL76	0.000	
54	   C	6.260	15.608	-22.321	C.2	7	VAL76	0.000	
55	   O	5.477	16.553	-22.284	O.2	7	VAL76	0.000	
56	  CB	5.255	14.774	-24.501	C.3	7	VAL76	0.000	
57	 CG1	5.609	14.397	-25.930	C.3	7	VAL76	0.000	
58	 CG2	4.406	13.685	-23.956	C.3	7	VAL76	0.000	
59	   N	-7.134	13.582	-16.313	N.am	8	MET115	0.000	
60	  CA	-7.953	12.845	-17.262	C.3	8	MET115	0.000	
61	   C	-7.686	11.373	-17.030	C.2	8	MET115	0.000	
62	   O	-6.528	10.944	-17.076	O.2	8	MET115	0.000	
63	  CB	-7.606	13.235	-18.693	C.3	8	MET115	0.000	
64	  CG	-7.457	14.718	-18.880	C.3	8	MET115	0.000	
65	  SD	-6.770	15.096	-20.490	S.3	8	MET115	0.000	
66	  CE	-6.951	16.866	-20.537	C.3	8	MET115	0.000	
67	   N	-8.745	10.604	-16.773	N.am	9	ILE116	0.000	
68	  CA	-8.612	9.204	-16.375	C.3	9	ILE116	0.000	
69	   C	-9.491	8.346	-17.278	C.2	9	ILE116	0.000	
70	   O	-10.651	8.690	-17.540	O.2	9	ILE116	0.000	
71	  CB	-8.965	8.998	-14.887	C.3	9	ILE116	0.000	
72	 CG1	-8.148	9.962	-14.042	C.3	9	ILE116	0.000	
73	 CG2	-8.718	7.550	-14.445	C.3	9	ILE116	0.000	
74	 CD1	-8.213	9.722	-12.568	C.3	9	ILE116	0.000	
75	   N	-8.926	7.245	-17.774	N.am	10	SER117	0.000	
76	  CA	-9.629	6.276	-18.614	C.3	10	SER117	0.000	
77	   C	-9.472	4.935	-17.925	C.2	10	SER117	0.000	
78	   O	-8.349	4.440	-17.779	O.2	10	SER117	0.000	
79	  CB	-9.061	6.243	-20.028	C.3	10	SER117	0.000	
80	  OG	-9.577	5.174	-20.779	O.3	10	SER117	0.000	
81	   N	-14.314	7.014	-18.942	N.am	11	ALA121	0.000	
82	  CA	-13.317	8.074	-18.992	C.3	11	ALA121	0.000	
83	   C	-13.940	9.386	-18.552	C.2	11	ALA121	0.000	
84	   O	-15.078	9.697	-18.915	O.2	11	ALA121	0.000	
85	  CB	-12.717	8.229	-20.398	C.3	11	ALA121	0.000	
86	   N	-13.177	10.155	-17.784	N.am	12	ASP122	0.000	
87	  CA	-13.657	11.440	-17.308	C.3	12	ASP122	0.000	
88	   C	-12.448	12.279	-16.939	C.2	12	ASP122	0.000	
89	   O	-11.324	11.771	-16.820	O.2	12	ASP122	0.000	
90	  CB	-14.619	11.274	-16.126	C.3	12	ASP122	0.000	
91	  CG	-15.391	12.555	-15.798	C.2	12	ASP122	0.000	
92	 OD1	-15.696	13.335	-16.718	O.co2	12	ASP122	0.000	
93	 OD2	-15.733	12.757	-14.621	O.co2	12	ASP122	0.000	
94	   N	-12.692	13.580	-16.766	N.am	13	TYR123	0.000	
95	  CA	-11.673	14.467	-16.241	C.3	13	TYR123	0.000	
96	   C	-12.327	15.514	-15.362	C.2	13	TYR123	0.000	
97	   O	-13.521	15.798	-15.481	O.2	13	TYR123	0.000	
98	  CB	-10.875	15.144	-17.352	C.3	13	TYR123	0.000	
99	  CG	-11.515	16.402	-17.834	C.2	13	TYR123	0.000	
100	 CD1	-12.478	16.380	-18.840	C.2	13	TYR123	0.000	
101	 CD2	-11.148	17.638	-17.282	C.2	13	TYR123	0.000	
102	 CE1	-13.070	17.568	-19.293	C.2	13	TYR123	0.000	
103	 CE2	-11.730	18.820	-17.711	C.2	13	TYR123	0.000	
104	  CZ	-12.684	18.781	-18.708	C.2	13	TYR123	0.000	
105	  OH	-13.240	19.961	-19.100	O.3	13	TYR123	0.000	
@<TRIPOS>BOND
1 1 2 1
2 2 3 1
3 2 5 1
4 3 4 2
5 3 9 1
6 5 6 1
7 5 7 1
8 6 8 1
9 9 10 1
10 10 11 1
11 10 13 1
12 11 12 2
13 11 16 1
14 13 14 1
15 13 15 1
16 16 17 1
17 17 18 1
18 17 20 1
19 18 19 2
20 20 21 1
21 21 22 2
22 21 23 1
23 22 24 1
24 23 25 2
25 24 26 2
26 25 26 1
27 26 27 1
28 28 29 1
29 29 30 1
30 29 32 1
31 30 31 2
32 32 33 1
33 33 34 1
34 33 35 2
35 36 37 1
36 37 38 1
37 37 40 1
38 38 39 2
39 40 41 1
40 41 42 1
41 42 43 1
42 42 44 2
43 45 46 1
44 46 47 1
45 46 49 1
46 47 48 2
47 49 50 1
48 49 51 1
49 52 53 1
50 53 54 1
51 53 56 1
52 54 55 2
53 56 57 1
54 56 58 1
55 59 60 1
56 60 61 1
57 60 63 1
58 61 62 2
59 61 67 1
60 63 64 1
61 64 65 1
62 65 66 1
63 67 68 1
64 68 69 1
65 68 71 1
66 69 70 2
67 69 75 1
68 71 72 1
69 71 73 1
70 72 74 1
71 75 76 1
72 76 77 1
73 76 79 1
74 77 78 2
75 79 80 1
76 81 82 1
77 82 83 1
78 82 85 1
79 83 84 2
80 83 86 1
81 86 87 1
82 87 88 1
83 87 90 1
84 88 89 2
85 88 94 1
86 90 91 1
87 91 92 2
88 91 93 1
89 94 95 1
90 95 96 1
91 95 98 1
92 96 97 2
93 98 99 1
94 99 100 2
95 99 101 1
96 100 102 1
97 101 103 2
98 102 104 2
99 103 104 1
100 104 105 1
@<TRIPOS>SUBSTRUCTURE
1	ILE54	1	RESIDUE	1 B	ILE
2	VAL55	9	RESIDUE	1 B	VAL
3	TYR56	16	RESIDUE	1 B	TYR
4	ASN63	28	RESIDUE	1 B	ASN
5	GLN66	36	RESIDUE	1 B	GLN
6	VAL68	45	RESIDUE	1 B	VAL
7	VAL76	52	RESIDUE	1 B	VAL
8	MET115	59	RESIDUE	1 B	MET
9	ILE116	67	RESIDUE	1 B	ILE
10	SER117	75	RESIDUE	1 B	SER
11	ALA121	81	RESIDUE	1 B	ALA
12	ASP122	86	RESIDUE	1 B	ASP
13	TYR123	94	RESIDUE	1 B	TYR
