# created with PyMOL 2.5.2
@<TRIPOS>MOLECULE
PD_5N2D_TargetProtein
114 108 14              
SMALL
USER_CHARGES
@<TRIPOS>ATOM
1	   N	-5.293	4.521	-17.802	N.am	1	ILE54	0.000	
2	  CA	-4.517	5.621	-18.361	C.3	1	ILE54	0.000	
3	   C	-4.781	6.851	-17.507	C.2	1	ILE54	0.000	
4	   O	-5.939	7.250	-17.331	O.2	1	ILE54	0.000	
5	  CB	-4.888	5.926	-19.823	C.3	1	ILE54	0.000	
6	 CG1	-4.413	4.829	-20.764	C.3	1	ILE54	0.000	
7	 CG2	-4.300	7.269	-20.237	C.3	1	ILE54	0.000	
8	 CD1	-5.375	4.607	-21.901	C.3	1	ILE54	0.000	
9	   N	-3.719	7.460	-16.992	N.am	2	VAL55	0.000	
10	  CA	-3.831	8.657	-16.169	C.3	2	VAL55	0.000	
11	   C	-2.986	9.751	-16.809	C.2	2	VAL55	0.000	
12	   O	-1.755	9.640	-16.875	O.2	2	VAL55	0.000	
13	  CB	-3.397	8.421	-14.715	C.3	2	VAL55	0.000	
14	 CG1	-3.408	9.762	-13.966	C.3	2	VAL55	0.000	
15	 CG2	-4.295	7.410	-14.023	C.3	2	VAL55	0.000	
16	   N	-3.639	10.822	-17.238	N.am	3	TYR56	0.000	
17	  CA	-2.970	11.972	-17.815	C.3	3	TYR56	0.000	
18	   C	-3.192	13.191	-16.923	C.2	3	TYR56	0.000	
19	   O	-4.332	13.489	-16.543	O.2	3	TYR56	0.000	
20	  CB	-3.491	12.226	-19.230	C.3	3	TYR56	0.000	
21	  CG	-2.611	13.140	-20.004	C.2	3	TYR56	0.000	
22	 CD1	-2.844	14.509	-20.020	C.2	3	TYR56	0.000	
23	 CD2	-1.497	12.652	-20.678	C.2	3	TYR56	0.000	
24	 CE1	-2.007	15.377	-20.732	C.2	3	TYR56	0.000	
25	 CE2	-0.646	13.509	-21.394	C.2	3	TYR56	0.000	
26	  CZ	-0.916	14.870	-21.415	C.2	3	TYR56	0.000	
27	  OH	-0.113	15.741	-22.107	O.3	3	TYR56	0.000	
28	   N	-2.281	17.397	-16.714	N.am	4	GLU58	0.000	
29	  CA	-1.742	18.567	-17.384	C.3	4	GLU58	0.000	
30	   C	-2.181	19.826	-16.651	C.2	4	GLU58	0.000	
31	   O	-3.074	19.797	-15.793	O.2	4	GLU58	0.000	
32	  CB	-2.187	18.617	-18.845	C.3	4	GLU58	0.000	
33	  CG	-3.660	18.849	-19.029	C.3	4	GLU58	0.000	
34	  CD	-3.994	19.156	-20.472	C.2	4	GLU58	0.000	
35	 OE1	-5.047	19.790	-20.710	O.co2	4	GLU58	0.000	
36	 OE2	-3.192	18.767	-21.363	O.co2	4	GLU58	0.000	
37	   N	2.163	19.113	-20.543	N.am	5	ASN63	0.000	
38	  CA	2.096	17.749	-20.034	C.3	5	ASN63	0.000	
39	   C	2.928	17.604	-18.767	C.2	5	ASN63	0.000	
40	   O	4.093	18.017	-18.717	O.2	5	ASN63	0.000	
41	  CB	2.576	16.741	-21.088	C.3	5	ASN63	0.000	
42	  CG	2.605	15.299	-20.561	C.2	5	ASN63	0.000	
43	 ND2	2.821	14.361	-21.451	N.pl3	5	ASN63	0.000	
44	 OD1	2.404	15.040	-19.380	O.2	5	ASN63	0.000	
45	   N	1.993	11.092	-17.820	N.am	6	GLN66	0.000	
46	  CA	1.513	10.256	-18.921	C.3	6	GLN66	0.000	
47	   C	1.701	8.806	-18.481	C.2	6	GLN66	0.000	
48	   O	2.782	8.237	-18.642	O.2	6	GLN66	0.000	
49	  CB	2.278	10.559	-20.195	C.3	6	GLN66	0.000	
50	  CG	1.462	10.438	-21.439	C.3	6	GLN66	0.000	
51	  CD	2.324	10.439	-22.682	C.2	6	GLN66	0.000	
52	 NE2	2.800	9.267	-23.080	N.pl3	6	GLN66	0.000	
53	 OE1	2.550	11.478	-23.280	O.2	6	GLN66	0.000	
54	   N	0.582	5.051	-18.815	N.am	7	VAL68	0.000	
55	  CA	-0.067	4.046	-19.645	C.3	7	VAL68	0.000	
56	   C	0.546	2.698	-19.324	C.2	7	VAL68	0.000	
57	   O	1.758	2.602	-19.097	O.2	7	VAL68	0.000	
58	  CB	0.087	4.358	-21.146	C.3	7	VAL68	0.000	
59	 CG1	-0.949	3.603	-21.961	C.3	7	VAL68	0.000	
60	 CG2	-0.024	5.828	-21.378	C.3	7	VAL68	0.000	
61	   N	7.133	13.594	-23.439	N.am	8	VAL76	0.000	
62	  CA	6.531	14.897	-23.644	C.3	8	VAL76	0.000	
63	   C	6.260	15.608	-22.321	C.2	8	VAL76	0.000	
64	   O	5.477	16.553	-22.284	O.2	8	VAL76	0.000	
65	  CB	5.255	14.774	-24.501	C.3	8	VAL76	0.000	
66	 CG1	5.609	14.397	-25.930	C.3	8	VAL76	0.000	
67	 CG2	4.406	13.685	-23.956	C.3	8	VAL76	0.000	
68	   N	-7.134	13.582	-16.313	N.am	9	MET115	0.000	
69	  CA	-7.953	12.845	-17.262	C.3	9	MET115	0.000	
70	   C	-7.686	11.373	-17.030	C.2	9	MET115	0.000	
71	   O	-6.528	10.944	-17.076	O.2	9	MET115	0.000	
72	  CB	-7.606	13.235	-18.693	C.3	9	MET115	0.000	
73	  CG	-7.457	14.718	-18.880	C.3	9	MET115	0.000	
74	  SD	-6.770	15.096	-20.490	S.3	9	MET115	0.000	
75	  CE	-6.951	16.866	-20.537	C.3	9	MET115	0.000	
76	   N	-8.745	10.604	-16.773	N.am	10	ILE116	0.000	
77	  CA	-8.612	9.204	-16.375	C.3	10	ILE116	0.000	
78	   C	-9.491	8.346	-17.278	C.2	10	ILE116	0.000	
79	   O	-10.651	8.690	-17.540	O.2	10	ILE116	0.000	
80	  CB	-8.965	8.998	-14.887	C.3	10	ILE116	0.000	
81	 CG1	-8.148	9.962	-14.042	C.3	10	ILE116	0.000	
82	 CG2	-8.718	7.550	-14.445	C.3	10	ILE116	0.000	
83	 CD1	-8.213	9.722	-12.568	C.3	10	ILE116	0.000	
84	   N	-8.926	7.245	-17.774	N.am	11	SER117	0.000	
85	  CA	-9.629	6.276	-18.614	C.3	11	SER117	0.000	
86	   C	-9.472	4.935	-17.925	C.2	11	SER117	0.000	
87	   O	-8.349	4.440	-17.779	O.2	11	SER117	0.000	
88	  CB	-9.061	6.243	-20.028	C.3	11	SER117	0.000	
89	  OG	-9.577	5.174	-20.779	O.3	11	SER117	0.000	
90	   N	-14.314	7.014	-18.942	N.am	12	ALA121	0.000	
91	  CA	-13.317	8.074	-18.992	C.3	12	ALA121	0.000	
92	   C	-13.940	9.386	-18.552	C.2	12	ALA121	0.000	
93	   O	-15.078	9.697	-18.915	O.2	12	ALA121	0.000	
94	  CB	-12.717	8.229	-20.398	C.3	12	ALA121	0.000	
95	   N	-13.177	10.155	-17.784	N.am	13	ASP122	0.000	
96	  CA	-13.657	11.440	-17.308	C.3	13	ASP122	0.000	
97	   C	-12.448	12.279	-16.939	C.2	13	ASP122	0.000	
98	   O	-11.324	11.771	-16.820	O.2	13	ASP122	0.000	
99	  CB	-14.619	11.274	-16.126	C.3	13	ASP122	0.000	
100	  CG	-15.391	12.555	-15.798	C.2	13	ASP122	0.000	
101	 OD1	-15.696	13.335	-16.718	O.co2	13	ASP122	0.000	
102	 OD2	-15.733	12.757	-14.621	O.co2	13	ASP122	0.000	
103	   N	-12.692	13.580	-16.766	N.am	14	TYR123	0.000	
104	  CA	-11.673	14.467	-16.241	C.3	14	TYR123	0.000	
105	   C	-12.327	15.514	-15.362	C.2	14	TYR123	0.000	
106	   O	-13.521	15.798	-15.481	O.2	14	TYR123	0.000	
107	  CB	-10.875	15.144	-17.352	C.3	14	TYR123	0.000	
108	  CG	-11.515	16.402	-17.834	C.2	14	TYR123	0.000	
109	 CD1	-12.478	16.380	-18.840	C.2	14	TYR123	0.000	
110	 CD2	-11.148	17.638	-17.282	C.2	14	TYR123	0.000	
111	 CE1	-13.070	17.568	-19.293	C.2	14	TYR123	0.000	
112	 CE2	-11.730	18.820	-17.711	C.2	14	TYR123	0.000	
113	  CZ	-12.684	18.781	-18.708	C.2	14	TYR123	0.000	
114	  OH	-13.240	19.961	-19.100	O.3	14	TYR123	0.000	
@<TRIPOS>BOND
1 1 2 1
2 2 3 1
3 2 5 1
4 3 4 2
5 3 9 1
6 5 6 1
7 5 7 1
8 6 8 1
9 9 10 1
10 10 11 1
11 10 13 1
12 11 12 2
13 11 16 1
14 13 14 1
15 13 15 1
16 16 17 1
17 17 18 1
18 17 20 1
19 18 19 2
20 20 21 1
21 21 22 2
22 21 23 1
23 22 24 1
24 23 25 2
25 24 26 2
26 25 26 1
27 26 27 1
28 28 29 1
29 29 30 1
30 29 32 1
31 30 31 2
32 32 33 1
33 33 34 1
34 34 35 2
35 34 36 1
36 37 38 1
37 38 39 1
38 38 41 1
39 39 40 2
40 41 42 1
41 42 43 1
42 42 44 2
43 45 46 1
44 46 47 1
45 46 49 1
46 47 48 2
47 49 50 1
48 50 51 1
49 51 52 1
50 51 53 2
51 54 55 1
52 55 56 1
53 55 58 1
54 56 57 2
55 58 59 1
56 58 60 1
57 61 62 1
58 62 63 1
59 62 65 1
60 63 64 2
61 65 66 1
62 65 67 1
63 68 69 1
64 69 70 1
65 69 72 1
66 70 71 2
67 70 76 1
68 72 73 1
69 73 74 1
70 74 75 1
71 76 77 1
72 77 78 1
73 77 80 1
74 78 79 2
75 78 84 1
76 80 81 1
77 80 82 1
78 81 83 1
79 84 85 1
80 85 86 1
81 85 88 1
82 86 87 2
83 88 89 1
84 90 91 1
85 91 92 1
86 91 94 1
87 92 93 2
88 92 95 1
89 95 96 1
90 96 97 1
91 96 99 1
92 97 98 2
93 97 103 1
94 99 100 1
95 100 101 2
96 100 102 1
97 103 104 1
98 104 105 1
99 104 107 1
100 105 106 2
101 107 108 1
102 108 109 2
103 108 110 1
104 109 111 1
105 110 112 2
106 111 113 2
107 112 113 1
108 113 114 1
@<TRIPOS>SUBSTRUCTURE
1	ILE54	1	RESIDUE	1 B	ILE
2	VAL55	9	RESIDUE	1 B	VAL
3	TYR56	16	RESIDUE	1 B	TYR
4	GLU58	28	RESIDUE	1 B	GLU
5	ASN63	37	RESIDUE	1 B	ASN
6	GLN66	45	RESIDUE	1 B	GLN
7	VAL68	54	RESIDUE	1 B	VAL
8	VAL76	61	RESIDUE	1 B	VAL
9	MET115	68	RESIDUE	1 B	MET
10	ILE116	76	RESIDUE	1 B	ILE
11	SER117	84	RESIDUE	1 B	SER
12	ALA121	90	RESIDUE	1 B	ALA
13	ASP122	95	RESIDUE	1 B	ASP
14	TYR123	103	RESIDUE	1 B	TYR
