# created with PyMOL 2.5.2
@<TRIPOS>MOLECULE
SHP2_5EHR_TargetProtein
163 159 18              
SMALL
USER_CHARGES
@<TRIPOS>ATOM
1	   N	31.434	46.679	7.903	N.am	1	THR108	0.000	
2	  CA	31.386	45.340	7.286	C.3	1	THR108	0.000	
3	   C	30.071	44.590	7.458	C.2	1	THR108	0.000	
4	   O	29.682	43.838	6.559	O.2	1	THR108	0.000	
5	  CB	32.526	44.424	7.765	C.3	1	THR108	0.000	
6	 CG2	33.799	44.623	6.998	C.3	1	THR108	0.000	
7	 OG1	32.742	44.617	9.155	O.3	1	THR108	0.000	
8	   N	27.045	45.974	7.990	N.am	2	GLU110	0.000	
9	  CA	25.864	46.754	7.671	C.3	2	GLU110	0.000	
10	   C	25.228	46.154	6.436	C.2	2	GLU110	0.000	
11	   O	25.923	45.750	5.492	O.2	2	GLU110	0.000	
12	  CB	26.234	48.229	7.415	C.3	2	GLU110	0.000	
13	  CG	26.742	48.930	8.658	C.3	2	GLU110	0.000	
14	  CD	25.672	49.445	9.602	C.2	2	GLU110	0.000	
15	 OE1	24.474	49.142	9.404	O.co2	2	GLU110	0.000	
16	 OE2	26.047	50.123	10.579	O.co2	2	GLU110	0.000	
17	   N	23.894	46.119	6.434	N.am	3	ARG111	0.000	
18	  CA	23.098	45.585	5.332	C.3	3	ARG111	0.000	
19	   C	23.373	46.283	3.998	C.2	3	ARG111	0.000	
20	   O	23.262	45.676	2.947	O.2	3	ARG111	0.000	
21	  CB	21.611	45.768	5.645	C.3	3	ARG111	0.000	
22	  CG	20.971	44.732	6.551	C.3	3	ARG111	0.000	
23	  CD	19.563	45.244	6.809	C.3	3	ARG111	0.000	
24	  NE	18.452	44.361	6.431	N.pl3	3	ARG111	0.000	
25	  CZ	18.193	43.876	5.216	C.cat	3	ARG111	0.000	
26	 NH1	19.052	44.061	4.219	N.pl3	3	ARG111	0.000	
27	 NH2	17.111	43.141	5.008	N.pl3	3	ARG111	0.000	
28	   N	23.651	47.582	4.054	N.am	4	TRP112	0.000	
29	  CA	23.850	48.418	2.873	C.3	4	TRP112	0.000	
30	   C	25.298	48.538	2.392	C.2	4	TRP112	0.000	
31	   O	25.533	49.159	1.348	O.2	4	TRP112	0.000	
32	  CB	23.275	49.808	3.173	C.3	4	TRP112	0.000	
33	  CG	23.593	50.306	4.548	C.2	4	TRP112	0.000	
34	 CD1	22.749	50.320	5.626	C.2	4	TRP112	0.000	
35	 CD2	24.836	50.856	5.005	C.2	4	TRP112	0.000	
36	 CE2	24.663	51.211	6.363	C.2	4	TRP112	0.000	
37	 CE3	26.073	51.125	4.389	C.2	4	TRP112	0.000	
38	 NE1	23.377	50.870	6.713	N.pl3	4	TRP112	0.000	
39	 CZ2	25.678	51.812	7.118	C.2	4	TRP112	0.000	
40	 CZ3	27.085	51.714	5.142	C.2	4	TRP112	0.000	
41	 CH2	26.889	52.039	6.494	C.2	4	TRP112	0.000	
42	   N	26.266	47.991	3.147	N.am	5	PHE113	0.000	
43	  CA	27.689	48.120	2.786	C.3	5	PHE113	0.000	
44	   C	28.186	47.004	1.865	C.2	5	PHE113	0.000	
45	   O	28.185	45.827	2.229	O.2	5	PHE113	0.000	
46	  CB	28.564	48.204	4.032	C.3	5	PHE113	0.000	
47	  CG	30.007	48.506	3.710	C.2	5	PHE113	0.000	
48	 CD1	30.385	49.767	3.250	C.2	5	PHE113	0.000	
49	 CD2	30.985	47.529	3.846	C.2	5	PHE113	0.000	
50	 CE1	31.715	50.036	2.912	C.2	5	PHE113	0.000	
51	 CE2	32.321	47.805	3.531	C.2	5	PHE113	0.000	
52	  CZ	32.673	49.057	3.058	C.2	5	PHE113	0.000	
53	   N	28.665	47.390	0.691	N.am	6	HIE114	0.000	
54	  CA	29.161	46.419	-0.280	C.3	6	HIE114	0.000	
55	   C	30.561	46.804	-0.651	C.2	6	HIE114	0.000	
56	   O	30.764	47.361	-1.724	O.2	6	HIE114	0.000	
57	  CB	28.246	46.394	-1.510	C.3	6	HIE114	0.000	
58	  CG	26.868	45.904	-1.206	C.2	6	HIE114	0.000	
59	 CD2	25.837	46.538	-0.600	C.2	6	HIE114	0.000	
60	 ND1	26.484	44.605	-1.506	N.2	6	HIE114	0.000	
61	 CE1	25.226	44.503	-1.105	C.2	6	HIE114	0.000	
62	 NE2	24.800	45.626	-0.529	N.pl3	6	HIE114	0.000	
63	   N	20.269	41.952	-1.784	N.am	7	THR218	0.000	
64	  CA	21.225	41.133	-2.539	C.3	7	THR218	0.000	
65	   C	21.195	39.674	-2.070	C.2	7	THR218	0.000	
66	   O	21.856	38.836	-2.687	O.2	7	THR218	0.000	
67	  CB	22.657	41.686	-2.465	C.3	7	THR218	0.000	
68	 CG2	22.814	42.993	-3.225	C.3	7	THR218	0.000	
69	 OG1	23.103	41.798	-1.098	O.3	7	THR218	0.000	
70	   N	20.430	39.357	-0.999	N.am	8	THR219	0.000	
71	  CA	20.402	37.967	-0.480	C.3	8	THR219	0.000	
72	   C	19.280	37.095	-1.080	C.2	8	THR219	0.000	
73	   O	19.415	35.866	-1.087	O.2	8	THR219	0.000	
74	  CB	20.288	37.971	1.038	C.3	8	THR219	0.000	
75	 CG2	21.537	38.529	1.729	C.3	8	THR219	0.000	
76	 OG1	19.125	38.710	1.391	O.3	8	THR219	0.000	
77	   N	30.295	36.661	6.585	N.am	9	GLU249	0.000	
78	  CA	29.898	38.052	6.382	C.3	9	GLU249	0.000	
79	   C	28.375	38.174	6.367	C.2	9	GLU249	0.000	
80	   O	27.820	39.047	7.045	O.2	9	GLU249	0.000	
81	  CB	30.495	38.596	5.071	C.3	9	GLU249	0.000	
82	  CG	30.339	40.091	4.898	C.3	9	GLU249	0.000	
83	  CD	31.252	40.693	3.846	C.2	9	GLU249	0.000	
84	 OE1	30.758	40.996	2.738	O.co2	9	GLU249	0.000	
85	 OE2	32.462	40.852	4.125	O.co2	9	GLU249	0.000	
86	   N	27.704	37.260	5.656	N.am	10	GLU250	0.000	
87	  CA	26.242	37.309	5.583	C.3	10	GLU250	0.000	
88	   C	25.621	36.997	6.949	C.2	10	GLU250	0.000	
89	   O	24.724	37.708	7.396	O.2	10	GLU250	0.000	
90	  CB	25.730	36.374	4.492	C.3	10	GLU250	0.000	
91	  CG	24.257	36.611	4.203	C.3	10	GLU250	0.000	
92	  CD	23.756	35.748	3.076	C.2	10	GLU250	0.000	
93	 OE1	23.128	34.705	3.356	O.co2	10	GLU250	0.000	
94	 OE2	24.036	36.087	1.908	O.co2	10	GLU250	0.000	
95	   N	26.066	39.954	9.360	N.am	11	THR253	0.000	
96	  CA	25.203	41.101	9.010	C.3	11	THR253	0.000	
97	   C	23.798	40.780	9.562	C.2	11	THR253	0.000	
98	   O	23.126	41.658	10.101	O.2	11	THR253	0.000	
99	  CB	25.205	41.314	7.502	C.3	11	THR253	0.000	
100	 CG2	24.294	42.446	7.073	C.3	11	THR253	0.000	
101	 OG1	26.540	41.593	7.115	O.3	11	THR253	0.000	
102	   N	23.382	39.485	9.492	N.am	12	LEU254	0.000	
103	  CA	22.094	39.067	10.107	C.3	12	LEU254	0.000	
104	   C	22.138	39.230	11.659	C.2	12	LEU254	0.000	
105	   O	21.233	39.821	12.255	O.2	12	LEU254	0.000	
106	  CB	21.780	37.602	9.664	C.3	12	LEU254	0.000	
107	  CG	20.643	36.875	10.400	C.3	12	LEU254	0.000	
108	 CD1	19.294	37.595	10.207	C.3	12	LEU254	0.000	
109	 CD2	20.557	35.448	9.948	C.3	12	LEU254	0.000	
110	   N	21.454	42.659	13.235	N.am	13	GLN257	0.000	
111	  CA	20.035	43.023	13.288	C.3	13	GLN257	0.000	
112	   C	19.281	42.406	14.462	C.2	13	GLN257	0.000	
113	   O	18.077	42.647	14.627	O.2	13	GLN257	0.000	
114	  CB	19.356	42.618	11.970	C.3	13	GLN257	0.000	
115	  CG	19.894	43.381	10.750	C.3	13	GLN257	0.000	
116	  CD	19.689	44.864	10.928	C.2	13	GLN257	0.000	
117	 NE2	20.757	45.618	10.852	N.pl3	13	GLN257	0.000	
118	 OE1	18.582	45.327	11.180	O.2	13	GLN257	0.000	
119	   N	14.970	33.698	0.382	N.am	14	ASP489	0.000	
120	  CA	15.863	34.678	0.998	C.3	14	ASP489	0.000	
121	   C	16.150	34.128	2.418	C.2	14	ASP489	0.000	
122	   O	15.326	34.291	3.340	O.2	14	ASP489	0.000	
123	  CB	15.186	36.073	1.026	C.3	14	ASP489	0.000	
124	  CG	16.089	37.240	1.407	C.2	14	ASP489	0.000	
125	 OD1	17.140	37.000	2.044	O.co2	14	ASP489	0.000	
126	 OD2	15.667	38.396	1.215	O.co2	14	ASP489	0.000	
127	   N	18.431	34.786	5.035	N.am	15	PRO491	0.000	
128	  CA	18.405	35.679	6.203	C.3	15	PRO491	0.000	
129	   C	17.065	36.341	6.473	C.2	15	PRO491	0.000	
130	   O	16.763	36.546	7.629	O.2	15	PRO491	0.000	
131	  CB	19.513	36.705	5.929	C.3	15	PRO491	0.000	
132	  CG	19.765	36.613	4.478	C.3	15	PRO491	0.000	
133	  CD	19.435	35.230	4.037	C.3	15	PRO491	0.000	
134	   N	16.254	36.641	5.430	N.am	16	LYS492	0.000	
135	  CA	14.903	37.182	5.623	C.3	16	LYS492	0.000	
136	   C	14.043	36.172	6.373	C.2	16	LYS492	0.000	
137	   O	13.350	36.546	7.332	O.2	16	LYS492	0.000	
138	  CB	14.232	37.547	4.283	C.3	16	LYS492	0.000	
139	  CG	12.872	38.245	4.476	C.3	16	LYS492	0.000	
140	  CD	12.284	38.744	3.153	C.3	16	LYS492	0.000	
141	  CE	10.884	39.276	3.356	C.3	16	LYS492	0.000	
142	  NZ	10.288	39.782	2.089	N.4	16	LYS492	0.000	
143	   N	15.289	35.995	10.037	N.am	17	GLN495	0.000	
144	  CA	14.895	37.180	10.835	C.3	17	GLN495	0.000	
145	   C	13.405	37.093	11.210	C.2	17	GLN495	0.000	
146	   O	13.019	37.415	12.344	O.2	17	GLN495	0.000	
147	  CB	15.200	38.472	10.065	C.3	17	GLN495	0.000	
148	  CG	15.016	39.747	10.906	C.3	17	GLN495	0.000	
149	  CD	16.071	39.953	11.987	C.2	17	GLN495	0.000	
150	 NE2	16.089	41.152	12.577	N.pl3	17	GLN495	0.000	
151	 OE1	16.883	39.059	12.308	O.2	17	GLN495	0.000	
152	   N	23.894	28.132	9.961	N.am	18	TYR511	0.000	
153	  CA	23.524	29.027	8.850	C.3	18	TYR511	0.000	
154	   C	23.986	28.414	7.529	C.2	18	TYR511	0.000	
155	   O	23.207	28.277	6.591	O.2	18	TYR511	0.000	
156	  CB	24.177	30.388	9.053	C.3	18	TYR511	0.000	
157	  CG	23.634	31.437	8.118	C.2	18	TYR511	0.000	
158	 CD1	22.376	31.998	8.327	C.2	18	TYR511	0.000	
159	 CD2	24.376	31.871	7.013	C.2	18	TYR511	0.000	
160	 CE1	21.905	33.026	7.515	C.2	18	TYR511	0.000	
161	 CE2	23.885	32.852	6.158	C.2	18	TYR511	0.000	
162	  CZ	22.679	33.470	6.450	C.2	18	TYR511	0.000	
163	  OH	22.142	34.438	5.643	O.3	18	TYR511	0.000	
@<TRIPOS>BOND
1 1 2 1
2 2 3 1
3 2 5 1
4 3 4 2
5 5 6 1
6 5 7 1
7 8 9 1
8 9 10 1
9 9 12 1
10 10 11 2
11 10 17 1
12 12 13 1
13 13 14 1
14 14 15 2
15 14 16 1
16 17 18 1
17 18 19 1
18 18 21 1
19 19 20 2
20 19 28 1
21 21 22 1
22 22 23 1
23 23 24 1
24 24 25 1
25 25 26 2
26 25 27 1
27 28 29 1
28 29 30 1
29 29 32 1
30 30 31 2
31 30 42 1
32 32 33 1
33 33 34 2
34 33 35 1
35 34 38 1
36 35 36 2
37 35 37 1
38 36 39 1
39 37 40 2
40 36 38 1
41 39 41 2
42 40 41 1
43 42 43 1
44 43 44 1
45 43 46 1
46 44 45 2
47 44 53 1
48 46 47 1
49 47 48 2
50 47 49 1
51 48 50 1
52 49 51 2
53 50 52 2
54 51 52 1
55 53 54 1
56 54 55 1
57 54 57 1
58 55 56 2
59 57 58 1
60 58 59 2
61 58 60 1
62 59 62 1
63 60 61 2
64 61 62 1
65 63 64 1
66 64 65 1
67 64 67 1
68 65 66 2
69 65 70 1
70 67 68 1
71 67 69 1
72 70 71 1
73 71 72 1
74 71 74 1
75 72 73 2
76 74 75 1
77 74 76 1
78 77 78 1
79 78 79 1
80 78 81 1
81 79 80 2
82 79 86 1
83 81 82 1
84 82 83 1
85 83 84 2
86 83 85 1
87 86 87 1
88 87 88 1
89 87 90 1
90 88 89 2
91 90 91 1
92 91 92 1
93 92 93 2
94 92 94 1
95 95 96 1
96 96 97 1
97 96 99 1
98 97 98 2
99 97 102 1
100 99 100 1
101 99 101 1
102 102 103 1
103 103 104 1
104 103 106 1
105 104 105 2
106 106 107 1
107 107 108 1
108 107 109 1
109 110 111 1
110 111 112 1
111 111 114 1
112 112 113 2
113 114 115 1
114 115 116 1
115 116 117 1
116 116 118 2
117 119 120 1
118 120 121 1
119 120 123 1
120 121 122 2
121 123 124 1
122 124 125 2
123 124 126 1
124 127 128 1
125 127 133 1
126 128 129 1
127 128 131 1
128 129 130 2
129 129 134 1
130 131 132 1
131 132 133 1
132 134 135 1
133 135 136 1
134 135 138 1
135 136 137 2
136 138 139 1
137 139 140 1
138 140 141 1
139 141 142 1
140 143 144 1
141 144 145 1
142 144 147 1
143 145 146 2
144 147 148 1
145 148 149 1
146 149 150 1
147 149 151 2
148 152 153 1
149 153 154 1
150 153 156 1
151 154 155 2
152 156 157 1
153 157 158 2
154 157 159 1
155 158 160 1
156 159 161 2
157 160 162 2
158 161 162 1
159 162 163 1
@<TRIPOS>SUBSTRUCTURE
1	THR108	1	RESIDUE	1 B	THR
2	GLU110	8	RESIDUE	1 B	GLU
3	ARG111	17	RESIDUE	1 B	ARG
4	TRP112	28	RESIDUE	1 B	TRP
5	PHE113	42	RESIDUE	1 B	PHE
6	HIE114	53	RESIDUE	1 B	HIE
7	THR218	63	RESIDUE	1 B	THR
8	THR219	70	RESIDUE	1 B	THR
9	GLU249	77	RESIDUE	1 B	GLU
10	GLU250	86	RESIDUE	1 B	GLU
11	THR253	95	RESIDUE	1 B	THR
12	LEU254	102	RESIDUE	1 B	LEU
13	GLN257	110	RESIDUE	1 B	GLN
14	ASP489	119	RESIDUE	1 B	ASP
15	PRO491	127	RESIDUE	1 B	PRO
16	LYS492	134	RESIDUE	1 B	LYS
17	GLN495	143	RESIDUE	1 B	GLN
18	TYR511	152	RESIDUE	1 B	TYR
