# created with PyMOL 2.5.2
@<TRIPOS>MOLECULE
SHP2_7RCT_TargetProtein
186 183 21              
SMALL
USER_CHARGES
@<TRIPOS>ATOM
1	   N	32.134	28.395	8.854	N.am	1	PRO107	0.000	
2	  CA	30.834	28.237	8.188	C.3	1	PRO107	0.000	
3	   C	30.562	26.836	7.657	C.2	1	PRO107	0.000	
4	   O	29.498	26.627	7.067	O.2	1	PRO107	0.000	
5	  CB	30.936	29.233	7.027	C.3	1	PRO107	0.000	
6	  CG	32.386	29.165	6.665	C.3	1	PRO107	0.000	
7	  CD	33.114	29.071	7.983	C.3	1	PRO107	0.000	
8	   N	31.486	25.895	7.871	N.am	2	THR108	0.000	
9	  CA	31.425	24.572	7.247	C.3	2	THR108	0.000	
10	   C	30.062	23.905	7.415	C.2	2	THR108	0.000	
11	   O	29.495	23.379	6.450	O.2	2	THR108	0.000	
12	  CB	32.524	23.681	7.835	C.3	2	THR108	0.000	
13	 CG2	32.428	22.264	7.296	C.3	2	THR108	0.000	
14	 OG1	33.808	24.228	7.510	O.3	2	THR108	0.000	
15	   N	27.130	25.187	8.090	N.am	3	GLU110	0.000	
16	  CA	25.944	25.976	7.818	C.3	3	GLU110	0.000	
17	   C	25.211	25.419	6.612	C.2	3	GLU110	0.000	
18	   O	25.821	24.969	5.642	O.2	3	GLU110	0.000	
19	  CB	26.309	27.447	7.568	C.3	3	GLU110	0.000	
20	  CG	27.014	28.108	8.743	C.3	3	GLU110	0.000	
21	  CD	26.080	28.436	9.904	C.2	3	GLU110	0.000	
22	 OE1	24.845	28.295	9.768	O.co2	3	GLU110	0.000	
23	 OE2	26.594	28.845	10.962	O.co2	3	GLU110	0.000	
24	   N	23.888	25.498	6.661	N.am	4	ARG111	0.000	
25	  CA	23.071	24.899	5.619	C.3	4	ARG111	0.000	
26	   C	23.248	25.610	4.276	C.2	4	ARG111	0.000	
27	   O	23.064	24.989	3.224	O.2	4	ARG111	0.000	
28	  CB	21.618	24.927	6.083	C.3	4	ARG111	0.000	
29	  CG	20.641	24.187	5.236	C.3	4	ARG111	0.000	
30	  CD	19.302	24.115	5.964	C.3	4	ARG111	0.000	
31	  NE	18.329	23.343	5.203	N.pl3	4	ARG111	0.000	
32	  CZ	17.109	23.059	5.638	C.cat	4	ARG111	0.000	
33	 NH1	16.674	23.500	6.808	N.pl3	4	ARG111	0.000	
34	 NH2	16.310	22.308	4.885	N.pl3	4	ARG111	0.000	
35	   N	23.608	26.902	4.292	N.am	5	TRP112	0.000	
36	  CA	23.754	27.709	3.087	C.3	5	TRP112	0.000	
37	   C	25.178	27.743	2.529	C.2	5	TRP112	0.000	
38	   O	25.395	28.361	1.476	O.2	5	TRP112	0.000	
39	  CB	23.287	29.158	3.350	C.3	5	TRP112	0.000	
40	  CG	23.660	29.715	4.707	C.2	5	TRP112	0.000	
41	 CD1	22.840	29.824	5.797	C.2	5	TRP112	0.000	
42	 CD2	24.945	30.208	5.126	C.2	5	TRP112	0.000	
43	 CE2	24.816	30.620	6.477	C.2	5	TRP112	0.000	
44	 CE3	26.181	30.365	4.488	C.2	5	TRP112	0.000	
45	 NE1	23.523	30.380	6.856	N.pl3	5	TRP112	0.000	
46	 CZ2	25.885	31.156	7.210	C.2	5	TRP112	0.000	
47	 CZ3	27.247	30.920	5.218	C.2	5	TRP112	0.000	
48	 CH2	27.088	31.299	6.567	C.2	5	TRP112	0.000	
49	   N	26.152	27.129	3.200	N.am	6	PHE113	0.000	
50	  CA	27.552	27.263	2.810	C.3	6	PHE113	0.000	
51	   C	27.988	26.099	1.932	C.2	6	PHE113	0.000	
52	   O	27.872	24.932	2.327	O.2	6	PHE113	0.000	
53	  CB	28.469	27.355	4.026	C.3	6	PHE113	0.000	
54	  CG	29.913	27.596	3.676	C.2	6	PHE113	0.000	
55	 CD1	30.319	28.819	3.150	C.2	6	PHE113	0.000	
56	 CD2	30.867	26.604	3.869	C.2	6	PHE113	0.000	
57	 CE1	31.650	29.047	2.818	C.2	6	PHE113	0.000	
58	 CE2	32.202	26.826	3.538	C.2	6	PHE113	0.000	
59	  CZ	32.593	28.050	3.018	C.2	6	PHE113	0.000	
60	   N	28.540	26.416	0.763	N.am	7	HIE114	0.000	
61	  CA	28.942	25.377	-0.176	C.3	7	HIE114	0.000	
62	   C	30.427	25.400	-0.522	C.2	7	HIE114	0.000	
63	   O	30.837	24.723	-1.474	O.2	7	HIE114	0.000	
64	  CB	28.081	25.467	-1.432	C.3	7	HIE114	0.000	
65	  CG	26.654	25.079	-1.196	C.2	7	HIE114	0.000	
66	 CD2	25.636	25.746	-0.604	C.2	7	HIE114	0.000	
67	 ND1	26.144	23.852	-1.562	N.2	7	HIE114	0.000	
68	 CE1	24.865	23.793	-1.237	C.2	7	HIE114	0.000	
69	 NE2	24.535	24.923	-0.639	N.pl3	7	HIE114	0.000	
70	   N	19.518	27.106	-0.350	N.am	8	LEU216	0.000	
71	  CA	19.233	26.284	-1.520	C.3	8	LEU216	0.000	
72	   C	19.141	24.809	-1.130	C.2	8	LEU216	0.000	
73	   O	20.042	24.277	-0.479	O.2	8	LEU216	0.000	
74	  CB	20.335	26.473	-2.555	C.3	8	LEU216	0.000	
75	  CG	20.127	25.689	-3.847	C.3	8	LEU216	0.000	
76	 CD1	18.897	26.201	-4.549	C.3	8	LEU216	0.000	
77	 CD2	21.347	25.755	-4.746	C.3	8	LEU216	0.000	
78	   N	18.066	24.140	-1.551	N.am	9	ASN217	0.000	
79	  CA	17.934	22.702	-1.300	C.3	9	ASN217	0.000	
80	   C	18.835	21.952	-2.272	C.2	9	ASN217	0.000	
81	   O	18.531	21.871	-3.465	O.2	9	ASN217	0.000	
82	  CB	16.481	22.259	-1.453	C.3	9	ASN217	0.000	
83	  CG	16.259	20.802	-1.043	C.2	9	ASN217	0.000	
84	 ND2	15.032	20.478	-0.667	N.pl3	9	ASN217	0.000	
85	 OD1	17.178	19.988	-1.067	O.2	9	ASN217	0.000	
86	   N	19.945	21.401	-1.777	N.am	10	THR218	0.000	
87	  CA	20.800	20.546	-2.595	C.3	10	THR218	0.000	
88	   C	20.780	19.087	-2.158	C.2	10	THR218	0.000	
89	   O	21.387	18.250	-2.830	O.2	10	THR218	0.000	
90	  CB	22.249	21.059	-2.603	C.3	10	THR218	0.000	
91	 CG2	22.302	22.491	-3.173	C.3	10	THR218	0.000	
92	 OG1	22.797	21.055	-1.275	O.3	10	THR218	0.000	
93	   N	20.099	18.756	-1.064	N.am	11	THR219	0.000	
94	  CA	20.059	17.377	-0.582	C.3	11	THR219	0.000	
95	   C	18.881	16.579	-1.136	C.2	11	THR219	0.000	
96	   O	18.920	15.340	-1.118	O.2	11	THR219	0.000	
97	  CB	20.011	17.376	0.945	C.3	11	THR219	0.000	
98	 CG2	21.297	17.925	1.524	C.3	11	THR219	0.000	
99	 OG1	18.918	18.189	1.365	O.3	11	THR219	0.000	
100	   N	30.454	16.113	6.477	N.am	12	GLU249	0.000	
101	  CA	30.045	17.509	6.397	C.3	12	GLU249	0.000	
102	   C	28.529	17.642	6.343	C.2	12	GLU249	0.000	
103	   O	27.956	18.524	6.988	O.2	12	GLU249	0.000	
104	  CB	30.697	18.181	5.183	C.3	12	GLU249	0.000	
105	  CG	32.208	18.342	5.317	C.3	12	GLU249	0.000	
106	  CD	32.826	19.117	4.166	C.2	12	GLU249	0.000	
107	 OE1	32.163	19.263	3.115	O.co2	12	GLU249	0.000	
108	 OE2	33.979	19.574	4.317	O.co2	12	GLU249	0.000	
109	   N	27.854	16.764	5.601	N.am	13	GLU250	0.000	
110	  CA	26.400	16.865	5.522	C.3	13	GLU250	0.000	
111	   C	25.748	16.470	6.846	C.2	13	GLU250	0.000	
112	   O	24.790	17.117	7.281	O.2	13	GLU250	0.000	
113	  CB	25.865	16.018	4.360	C.3	13	GLU250	0.000	
114	  CG	24.352	16.048	4.223	C.3	13	GLU250	0.000	
115	  CD	23.848	15.268	3.000	C.2	13	GLU250	0.000	
116	 OE1	24.272	15.579	1.852	O.co2	13	GLU250	0.000	
117	 OE2	23.031	14.341	3.189	O.co2	13	GLU250	0.000	
118	   N	26.159	19.277	9.277	N.am	14	THR253	0.000	
119	  CA	25.233	20.350	8.922	C.3	14	THR253	0.000	
120	   C	23.841	20.057	9.468	C.2	14	THR253	0.000	
121	   O	23.165	20.950	9.991	O.2	14	THR253	0.000	
122	  CB	25.203	20.523	7.400	C.3	14	THR253	0.000	
123	 CG2	24.182	21.550	6.978	C.3	14	THR253	0.000	
124	 OG1	26.500	20.916	6.932	O.3	14	THR253	0.000	
125	   N	23.405	18.800	9.375	N.am	15	LEU254	0.000	
126	  CA	22.140	18.403	9.988	C.3	15	LEU254	0.000	
127	   C	22.186	18.548	11.504	C.2	15	LEU254	0.000	
128	   O	21.213	19.006	12.119	O.2	15	LEU254	0.000	
129	  CB	21.813	16.959	9.607	C.3	15	LEU254	0.000	
130	  CG	20.587	16.334	10.257	C.3	15	LEU254	0.000	
131	 CD1	19.365	17.156	9.926	C.3	15	LEU254	0.000	
132	 CD2	20.423	14.882	9.766	C.3	15	LEU254	0.000	
133	   N	21.442	21.943	13.152	N.am	16	GLN257	0.000	
134	  CA	20.057	22.395	13.232	C.3	16	GLN257	0.000	
135	   C	19.285	21.746	14.376	C.2	16	GLN257	0.000	
136	   O	18.085	22.006	14.530	O.2	16	GLN257	0.000	
137	  CB	19.351	22.125	11.904	C.3	16	GLN257	0.000	
138	  CG	19.961	22.907	10.734	C.3	16	GLN257	0.000	
139	  CD	19.906	24.400	10.971	C.2	16	GLN257	0.000	
140	 NE2	21.006	25.091	10.690	N.pl3	16	GLN257	0.000	
141	 OE1	18.893	24.925	11.423	O.2	16	GLN257	0.000	
142	   N	14.976	13.003	0.183	N.am	17	ASP489	0.000	
143	  CA	15.770	14.010	0.891	C.3	17	ASP489	0.000	
144	   C	16.048	13.440	2.281	C.2	17	ASP489	0.000	
145	   O	15.206	13.562	3.174	O.2	17	ASP489	0.000	
146	  CB	15.029	15.344	0.945	C.3	17	ASP489	0.000	
147	  CG	15.897	16.495	1.430	C.2	17	ASP489	0.000	
148	 OD1	16.905	16.260	2.128	O.co2	17	ASP489	0.000	
149	 OD2	15.542	17.655	1.141	O.co2	17	ASP489	0.000	
150	   N	18.292	14.125	4.931	N.am	18	PRO491	0.000	
151	  CA	18.279	14.957	6.149	C.3	18	PRO491	0.000	
152	   C	16.931	15.608	6.403	C.2	18	PRO491	0.000	
153	   O	16.562	15.805	7.567	O.2	18	PRO491	0.000	
154	  CB	19.375	15.998	5.889	C.3	18	PRO491	0.000	
155	  CG	19.528	16.044	4.388	C.3	18	PRO491	0.000	
156	  CD	19.211	14.655	3.902	C.3	18	PRO491	0.000	
157	   N	16.166	15.943	5.357	N.am	19	LYS492	0.000	
158	  CA	14.834	16.486	5.603	C.3	19	LYS492	0.000	
159	   C	13.952	15.468	6.309	C.2	19	LYS492	0.000	
160	   O	13.243	15.805	7.265	O.2	19	LYS492	0.000	
161	  CB	14.186	16.940	4.295	C.3	19	LYS492	0.000	
162	  CG	12.789	17.508	4.479	C.3	19	LYS492	0.000	
163	  CD	12.168	17.853	3.128	C.3	19	LYS492	0.000	
164	  CE	10.789	18.485	3.286	C.3	19	LYS492	0.000	
165	  NZ	10.174	18.837	1.969	N.4	19	LYS492	0.000	
166	   N	15.273	15.240	9.942	N.am	20	GLN495	0.000	
167	  CA	14.866	16.392	10.738	C.3	20	GLN495	0.000	
168	   C	13.390	16.308	11.107	C.2	20	GLN495	0.000	
169	   O	12.999	16.627	12.236	O.2	20	GLN495	0.000	
170	  CB	15.161	17.693	9.986	C.3	20	GLN495	0.000	
171	  CG	14.925	18.951	10.811	C.3	20	GLN495	0.000	
172	  CD	16.004	19.176	11.873	C.2	20	GLN495	0.000	
173	 NE2	16.066	20.394	12.418	N.pl3	20	GLN495	0.000	
174	 OE1	16.778	18.275	12.184	O.2	20	GLN495	0.000	
175	   N	23.777	7.534	9.769	N.am	21	TYR511	0.000	
176	  CA	23.442	8.411	8.648	C.3	21	TYR511	0.000	
177	   C	23.881	7.794	7.322	C.2	21	TYR511	0.000	
178	   O	23.083	7.668	6.388	O.2	21	TYR511	0.000	
179	  CB	24.096	9.776	8.863	C.3	21	TYR511	0.000	
180	  CG	23.571	10.862	7.956	C.2	21	TYR511	0.000	
181	 CD1	22.327	11.432	8.178	C.2	21	TYR511	0.000	
182	 CD2	24.329	11.330	6.887	C.2	21	TYR511	0.000	
183	 CE1	21.848	12.455	7.354	C.2	21	TYR511	0.000	
184	 CE2	23.861	12.335	6.061	C.2	21	TYR511	0.000	
185	  CZ	22.622	12.890	6.303	C.2	21	TYR511	0.000	
186	  OH	22.147	13.891	5.473	O.3	21	TYR511	0.000	
@<TRIPOS>BOND
1 1 2 1
2 1 7 1
3 2 3 1
4 2 5 1
5 3 4 2
6 3 8 1
7 5 6 1
8 6 7 1
9 8 9 1
10 9 10 1
11 9 12 1
12 10 11 2
13 12 13 1
14 12 14 1
15 15 16 1
16 16 17 1
17 16 19 1
18 17 18 2
19 17 24 1
20 19 20 1
21 20 21 1
22 21 22 2
23 21 23 1
24 24 25 1
25 25 26 1
26 25 28 1
27 26 27 2
28 26 35 1
29 28 29 1
30 29 30 1
31 30 31 1
32 31 32 1
33 32 33 2
34 32 34 1
35 35 36 1
36 36 37 1
37 36 39 1
38 37 38 2
39 37 49 1
40 39 40 1
41 40 41 2
42 40 42 1
43 41 45 1
44 42 43 2
45 42 44 1
46 43 46 1
47 44 47 2
48 43 45 1
49 46 48 2
50 47 48 1
51 49 50 1
52 50 51 1
53 50 53 1
54 51 52 2
55 51 60 1
56 53 54 1
57 54 55 2
58 54 56 1
59 55 57 1
60 56 58 2
61 57 59 2
62 58 59 1
63 60 61 1
64 61 62 1
65 61 64 1
66 62 63 2
67 64 65 1
68 65 66 2
69 65 67 1
70 66 69 1
71 67 68 2
72 68 69 1
73 70 71 1
74 71 72 1
75 71 74 1
76 72 73 2
77 72 78 1
78 74 75 1
79 75 76 1
80 75 77 1
81 78 79 1
82 79 80 1
83 79 82 1
84 80 81 2
85 80 86 1
86 82 83 1
87 83 84 1
88 83 85 2
89 86 87 1
90 87 88 1
91 87 90 1
92 88 89 2
93 88 93 1
94 90 91 1
95 90 92 1
96 93 94 1
97 94 95 1
98 94 97 1
99 95 96 2
100 97 98 1
101 97 99 1
102 100 101 1
103 101 102 1
104 101 104 1
105 102 103 2
106 102 109 1
107 104 105 1
108 105 106 1
109 106 107 2
110 106 108 1
111 109 110 1
112 110 111 1
113 110 113 1
114 111 112 2
115 113 114 1
116 114 115 1
117 115 116 2
118 115 117 1
119 118 119 1
120 119 120 1
121 119 122 1
122 120 121 2
123 120 125 1
124 122 123 1
125 122 124 1
126 125 126 1
127 126 127 1
128 126 129 1
129 127 128 2
130 129 130 1
131 130 131 1
132 130 132 1
133 133 134 1
134 134 135 1
135 134 137 1
136 135 136 2
137 137 138 1
138 138 139 1
139 139 140 1
140 139 141 2
141 142 143 1
142 143 144 1
143 143 146 1
144 144 145 2
145 146 147 1
146 147 148 2
147 147 149 1
148 150 151 1
149 150 156 1
150 151 152 1
151 151 154 1
152 152 153 2
153 152 157 1
154 154 155 1
155 155 156 1
156 157 158 1
157 158 159 1
158 158 161 1
159 159 160 2
160 161 162 1
161 162 163 1
162 163 164 1
163 164 165 1
164 166 167 1
165 167 168 1
166 167 170 1
167 168 169 2
168 170 171 1
169 171 172 1
170 172 173 1
171 172 174 2
172 175 176 1
173 176 177 1
174 176 179 1
175 177 178 2
176 179 180 1
177 180 181 2
178 180 182 1
179 181 183 1
180 182 184 2
181 183 185 2
182 184 185 1
183 185 186 1
@<TRIPOS>SUBSTRUCTURE
1	PRO107	1	RESIDUE	1 B	PRO
2	THR108	8	RESIDUE	1 B	THR
3	GLU110	15	RESIDUE	1 B	GLU
4	ARG111	24	RESIDUE	1 B	ARG
5	TRP112	35	RESIDUE	1 B	TRP
6	PHE113	49	RESIDUE	1 B	PHE
7	HIE114	60	RESIDUE	1 B	HIE
8	LEU216	70	RESIDUE	1 B	LEU
9	ASN217	78	RESIDUE	1 B	ASN
10	THR218	86	RESIDUE	1 B	THR
11	THR219	93	RESIDUE	1 B	THR
12	GLU249	100	RESIDUE	1 B	GLU
13	GLU250	109	RESIDUE	1 B	GLU
14	THR253	118	RESIDUE	1 B	THR
15	LEU254	125	RESIDUE	1 B	LEU
16	GLN257	133	RESIDUE	1 B	GLN
17	ASP489	142	RESIDUE	1 B	ASP
18	PRO491	150	RESIDUE	1 B	PRO
19	LYS492	157	RESIDUE	1 B	LYS
20	GLN495	166	RESIDUE	1 B	GLN
21	TYR511	175	RESIDUE	1 B	TYR
