# created with PyMOL 2.5.2
@<TRIPOS>MOLECULE
SHP2_7RCT_TargetProtein
192 190 22              
SMALL
USER_CHARGES
@<TRIPOS>ATOM
1	   N	32.134	28.395	8.854	N.am	1	PRO107	0.000	
2	  CA	30.834	28.237	8.188	C.3	1	PRO107	0.000	
3	   C	30.562	26.836	7.657	C.2	1	PRO107	0.000	
4	   O	29.498	26.627	7.067	O.2	1	PRO107	0.000	
5	  CB	30.936	29.233	7.027	C.3	1	PRO107	0.000	
6	  CG	32.386	29.165	6.665	C.3	1	PRO107	0.000	
7	  CD	33.114	29.071	7.983	C.3	1	PRO107	0.000	
8	   N	31.486	25.895	7.871	N.am	2	THR108	0.000	
9	  CA	31.425	24.572	7.247	C.3	2	THR108	0.000	
10	   C	30.062	23.905	7.415	C.2	2	THR108	0.000	
11	   O	29.495	23.379	6.450	O.2	2	THR108	0.000	
12	  CB	32.524	23.681	7.835	C.3	2	THR108	0.000	
13	 CG2	32.428	22.264	7.296	C.3	2	THR108	0.000	
14	 OG1	33.808	24.228	7.510	O.3	2	THR108	0.000	
15	   N	29.520	23.913	8.632	N.am	3	SER109	0.000	
16	  CA	28.288	23.183	8.914	C.3	3	SER109	0.000	
17	   C	27.033	24.031	8.744	C.2	3	SER109	0.000	
18	   O	25.955	23.620	9.187	O.2	3	SER109	0.000	
19	  CB	28.336	22.584	10.326	C.3	3	SER109	0.000	
20	  OG	28.421	23.597	11.310	O.3	3	SER109	0.000	
21	   N	27.130	25.187	8.090	N.am	4	GLU110	0.000	
22	  CA	25.944	25.976	7.818	C.3	4	GLU110	0.000	
23	   C	25.211	25.419	6.612	C.2	4	GLU110	0.000	
24	   O	25.821	24.969	5.642	O.2	4	GLU110	0.000	
25	  CB	26.309	27.447	7.568	C.3	4	GLU110	0.000	
26	  CG	27.014	28.108	8.743	C.3	4	GLU110	0.000	
27	  CD	26.080	28.436	9.904	C.2	4	GLU110	0.000	
28	 OE1	24.845	28.295	9.768	O.co2	4	GLU110	0.000	
29	 OE2	26.594	28.845	10.962	O.co2	4	GLU110	0.000	
30	   N	23.888	25.498	6.661	N.am	5	ARG111	0.000	
31	  CA	23.071	24.899	5.619	C.3	5	ARG111	0.000	
32	   C	23.248	25.610	4.276	C.2	5	ARG111	0.000	
33	   O	23.064	24.989	3.224	O.2	5	ARG111	0.000	
34	  CB	21.618	24.927	6.083	C.3	5	ARG111	0.000	
35	  CG	20.641	24.187	5.236	C.3	5	ARG111	0.000	
36	  CD	19.302	24.115	5.964	C.3	5	ARG111	0.000	
37	  NE	18.329	23.343	5.203	N.pl3	5	ARG111	0.000	
38	  CZ	17.109	23.059	5.638	C.cat	5	ARG111	0.000	
39	 NH1	16.674	23.500	6.808	N.pl3	5	ARG111	0.000	
40	 NH2	16.310	22.308	4.885	N.pl3	5	ARG111	0.000	
41	   N	23.608	26.902	4.292	N.am	6	TRP112	0.000	
42	  CA	23.754	27.709	3.087	C.3	6	TRP112	0.000	
43	   C	25.178	27.743	2.529	C.2	6	TRP112	0.000	
44	   O	25.395	28.361	1.476	O.2	6	TRP112	0.000	
45	  CB	23.287	29.158	3.350	C.3	6	TRP112	0.000	
46	  CG	23.660	29.715	4.707	C.2	6	TRP112	0.000	
47	 CD1	22.840	29.824	5.797	C.2	6	TRP112	0.000	
48	 CD2	24.945	30.208	5.126	C.2	6	TRP112	0.000	
49	 CE2	24.816	30.620	6.477	C.2	6	TRP112	0.000	
50	 CE3	26.181	30.365	4.488	C.2	6	TRP112	0.000	
51	 NE1	23.523	30.380	6.856	N.pl3	6	TRP112	0.000	
52	 CZ2	25.885	31.156	7.210	C.2	6	TRP112	0.000	
53	 CZ3	27.247	30.920	5.218	C.2	6	TRP112	0.000	
54	 CH2	27.088	31.299	6.567	C.2	6	TRP112	0.000	
55	   N	26.152	27.129	3.200	N.am	7	PHE113	0.000	
56	  CA	27.552	27.263	2.810	C.3	7	PHE113	0.000	
57	   C	27.988	26.099	1.932	C.2	7	PHE113	0.000	
58	   O	27.872	24.932	2.327	O.2	7	PHE113	0.000	
59	  CB	28.469	27.355	4.026	C.3	7	PHE113	0.000	
60	  CG	29.913	27.596	3.676	C.2	7	PHE113	0.000	
61	 CD1	30.319	28.819	3.150	C.2	7	PHE113	0.000	
62	 CD2	30.867	26.604	3.869	C.2	7	PHE113	0.000	
63	 CE1	31.650	29.047	2.818	C.2	7	PHE113	0.000	
64	 CE2	32.202	26.826	3.538	C.2	7	PHE113	0.000	
65	  CZ	32.593	28.050	3.018	C.2	7	PHE113	0.000	
66	   N	28.540	26.416	0.763	N.am	8	HIE114	0.000	
67	  CA	28.942	25.377	-0.176	C.3	8	HIE114	0.000	
68	   C	30.427	25.400	-0.522	C.2	8	HIE114	0.000	
69	   O	30.837	24.723	-1.474	O.2	8	HIE114	0.000	
70	  CB	28.081	25.467	-1.432	C.3	8	HIE114	0.000	
71	  CG	26.654	25.079	-1.196	C.2	8	HIE114	0.000	
72	 CD2	25.636	25.746	-0.604	C.2	8	HIE114	0.000	
73	 ND1	26.144	23.852	-1.562	N.2	8	HIE114	0.000	
74	 CE1	24.865	23.793	-1.237	C.2	8	HIE114	0.000	
75	 NE2	24.535	24.923	-0.639	N.pl3	8	HIE114	0.000	
76	   N	19.518	27.106	-0.350	N.am	9	LEU216	0.000	
77	  CA	19.233	26.284	-1.520	C.3	9	LEU216	0.000	
78	   C	19.141	24.809	-1.130	C.2	9	LEU216	0.000	
79	   O	20.042	24.277	-0.479	O.2	9	LEU216	0.000	
80	  CB	20.335	26.473	-2.555	C.3	9	LEU216	0.000	
81	  CG	20.127	25.689	-3.847	C.3	9	LEU216	0.000	
82	 CD1	18.897	26.201	-4.549	C.3	9	LEU216	0.000	
83	 CD2	21.347	25.755	-4.746	C.3	9	LEU216	0.000	
84	   N	18.066	24.140	-1.551	N.am	10	ASN217	0.000	
85	  CA	17.934	22.702	-1.300	C.3	10	ASN217	0.000	
86	   C	18.835	21.952	-2.272	C.2	10	ASN217	0.000	
87	   O	18.531	21.871	-3.465	O.2	10	ASN217	0.000	
88	  CB	16.481	22.259	-1.453	C.3	10	ASN217	0.000	
89	  CG	16.259	20.802	-1.043	C.2	10	ASN217	0.000	
90	 ND2	15.032	20.478	-0.667	N.pl3	10	ASN217	0.000	
91	 OD1	17.178	19.988	-1.067	O.2	10	ASN217	0.000	
92	   N	19.945	21.401	-1.777	N.am	11	THR218	0.000	
93	  CA	20.800	20.546	-2.595	C.3	11	THR218	0.000	
94	   C	20.780	19.087	-2.158	C.2	11	THR218	0.000	
95	   O	21.387	18.250	-2.830	O.2	11	THR218	0.000	
96	  CB	22.249	21.059	-2.603	C.3	11	THR218	0.000	
97	 CG2	22.302	22.491	-3.173	C.3	11	THR218	0.000	
98	 OG1	22.797	21.055	-1.275	O.3	11	THR218	0.000	
99	   N	20.099	18.756	-1.064	N.am	12	THR219	0.000	
100	  CA	20.059	17.377	-0.582	C.3	12	THR219	0.000	
101	   C	18.881	16.579	-1.136	C.2	12	THR219	0.000	
102	   O	18.920	15.340	-1.118	O.2	12	THR219	0.000	
103	  CB	20.011	17.376	0.945	C.3	12	THR219	0.000	
104	 CG2	21.297	17.925	1.524	C.3	12	THR219	0.000	
105	 OG1	18.918	18.189	1.365	O.3	12	THR219	0.000	
106	   N	30.454	16.113	6.477	N.am	13	GLU249	0.000	
107	  CA	30.045	17.509	6.397	C.3	13	GLU249	0.000	
108	   C	28.529	17.642	6.343	C.2	13	GLU249	0.000	
109	   O	27.956	18.524	6.988	O.2	13	GLU249	0.000	
110	  CB	30.697	18.181	5.183	C.3	13	GLU249	0.000	
111	  CG	32.208	18.342	5.317	C.3	13	GLU249	0.000	
112	  CD	32.826	19.117	4.166	C.2	13	GLU249	0.000	
113	 OE1	32.163	19.263	3.115	O.co2	13	GLU249	0.000	
114	 OE2	33.979	19.574	4.317	O.co2	13	GLU249	0.000	
115	   N	27.854	16.764	5.601	N.am	14	GLU250	0.000	
116	  CA	26.400	16.865	5.522	C.3	14	GLU250	0.000	
117	   C	25.748	16.470	6.846	C.2	14	GLU250	0.000	
118	   O	24.790	17.117	7.281	O.2	14	GLU250	0.000	
119	  CB	25.865	16.018	4.360	C.3	14	GLU250	0.000	
120	  CG	24.352	16.048	4.223	C.3	14	GLU250	0.000	
121	  CD	23.848	15.268	3.000	C.2	14	GLU250	0.000	
122	 OE1	24.272	15.579	1.852	O.co2	14	GLU250	0.000	
123	 OE2	23.031	14.341	3.189	O.co2	14	GLU250	0.000	
124	   N	26.159	19.277	9.277	N.am	15	THR253	0.000	
125	  CA	25.233	20.350	8.922	C.3	15	THR253	0.000	
126	   C	23.841	20.057	9.468	C.2	15	THR253	0.000	
127	   O	23.165	20.950	9.991	O.2	15	THR253	0.000	
128	  CB	25.203	20.523	7.400	C.3	15	THR253	0.000	
129	 CG2	24.182	21.550	6.978	C.3	15	THR253	0.000	
130	 OG1	26.500	20.916	6.932	O.3	15	THR253	0.000	
131	   N	23.405	18.800	9.375	N.am	16	LEU254	0.000	
132	  CA	22.140	18.403	9.988	C.3	16	LEU254	0.000	
133	   C	22.186	18.548	11.504	C.2	16	LEU254	0.000	
134	   O	21.213	19.006	12.119	O.2	16	LEU254	0.000	
135	  CB	21.813	16.959	9.607	C.3	16	LEU254	0.000	
136	  CG	20.587	16.334	10.257	C.3	16	LEU254	0.000	
137	 CD1	19.365	17.156	9.926	C.3	16	LEU254	0.000	
138	 CD2	20.423	14.882	9.766	C.3	16	LEU254	0.000	
139	   N	21.442	21.943	13.152	N.am	17	GLN257	0.000	
140	  CA	20.057	22.395	13.232	C.3	17	GLN257	0.000	
141	   C	19.285	21.746	14.376	C.2	17	GLN257	0.000	
142	   O	18.085	22.006	14.530	O.2	17	GLN257	0.000	
143	  CB	19.351	22.125	11.904	C.3	17	GLN257	0.000	
144	  CG	19.961	22.907	10.734	C.3	17	GLN257	0.000	
145	  CD	19.906	24.400	10.971	C.2	17	GLN257	0.000	
146	 NE2	21.006	25.091	10.690	N.pl3	17	GLN257	0.000	
147	 OE1	18.893	24.925	11.423	O.2	17	GLN257	0.000	
148	   N	14.976	13.003	0.183	N.am	18	ASP489	0.000	
149	  CA	15.770	14.010	0.891	C.3	18	ASP489	0.000	
150	   C	16.048	13.440	2.281	C.2	18	ASP489	0.000	
151	   O	15.206	13.562	3.174	O.2	18	ASP489	0.000	
152	  CB	15.029	15.344	0.945	C.3	18	ASP489	0.000	
153	  CG	15.897	16.495	1.430	C.2	18	ASP489	0.000	
154	 OD1	16.905	16.260	2.128	O.co2	18	ASP489	0.000	
155	 OD2	15.542	17.655	1.141	O.co2	18	ASP489	0.000	
156	   N	18.292	14.125	4.931	N.am	19	PRO491	0.000	
157	  CA	18.279	14.957	6.149	C.3	19	PRO491	0.000	
158	   C	16.931	15.608	6.403	C.2	19	PRO491	0.000	
159	   O	16.562	15.805	7.567	O.2	19	PRO491	0.000	
160	  CB	19.375	15.998	5.889	C.3	19	PRO491	0.000	
161	  CG	19.528	16.044	4.388	C.3	19	PRO491	0.000	
162	  CD	19.211	14.655	3.902	C.3	19	PRO491	0.000	
163	   N	16.166	15.943	5.357	N.am	20	LYS492	0.000	
164	  CA	14.834	16.486	5.603	C.3	20	LYS492	0.000	
165	   C	13.952	15.468	6.309	C.2	20	LYS492	0.000	
166	   O	13.243	15.805	7.265	O.2	20	LYS492	0.000	
167	  CB	14.186	16.940	4.295	C.3	20	LYS492	0.000	
168	  CG	12.789	17.508	4.479	C.3	20	LYS492	0.000	
169	  CD	12.168	17.853	3.128	C.3	20	LYS492	0.000	
170	  CE	10.789	18.485	3.286	C.3	20	LYS492	0.000	
171	  NZ	10.174	18.837	1.969	N.4	20	LYS492	0.000	
172	   N	15.273	15.240	9.942	N.am	21	GLN495	0.000	
173	  CA	14.866	16.392	10.738	C.3	21	GLN495	0.000	
174	   C	13.390	16.308	11.107	C.2	21	GLN495	0.000	
175	   O	12.999	16.627	12.236	O.2	21	GLN495	0.000	
176	  CB	15.161	17.693	9.986	C.3	21	GLN495	0.000	
177	  CG	14.925	18.951	10.811	C.3	21	GLN495	0.000	
178	  CD	16.004	19.176	11.873	C.2	21	GLN495	0.000	
179	 NE2	16.066	20.394	12.418	N.pl3	21	GLN495	0.000	
180	 OE1	16.778	18.275	12.184	O.2	21	GLN495	0.000	
181	   N	23.777	7.534	9.769	N.am	22	TYR511	0.000	
182	  CA	23.442	8.411	8.648	C.3	22	TYR511	0.000	
183	   C	23.881	7.794	7.322	C.2	22	TYR511	0.000	
184	   O	23.083	7.668	6.388	O.2	22	TYR511	0.000	
185	  CB	24.096	9.776	8.863	C.3	22	TYR511	0.000	
186	  CG	23.571	10.862	7.956	C.2	22	TYR511	0.000	
187	 CD1	22.327	11.432	8.178	C.2	22	TYR511	0.000	
188	 CD2	24.329	11.330	6.887	C.2	22	TYR511	0.000	
189	 CE1	21.848	12.455	7.354	C.2	22	TYR511	0.000	
190	 CE2	23.861	12.335	6.061	C.2	22	TYR511	0.000	
191	  CZ	22.622	12.890	6.303	C.2	22	TYR511	0.000	
192	  OH	22.147	13.891	5.473	O.3	22	TYR511	0.000	
@<TRIPOS>BOND
1 1 2 1
2 1 7 1
3 2 3 1
4 2 5 1
5 3 4 2
6 3 8 1
7 5 6 1
8 6 7 1
9 8 9 1
10 9 10 1
11 9 12 1
12 10 11 2
13 10 15 1
14 12 13 1
15 12 14 1
16 15 16 1
17 16 17 1
18 16 19 1
19 17 18 2
20 17 21 1
21 19 20 1
22 21 22 1
23 22 23 1
24 22 25 1
25 23 24 2
26 23 30 1
27 25 26 1
28 26 27 1
29 27 28 2
30 27 29 1
31 30 31 1
32 31 32 1
33 31 34 1
34 32 33 2
35 32 41 1
36 34 35 1
37 35 36 1
38 36 37 1
39 37 38 1
40 38 39 2
41 38 40 1
42 41 42 1
43 42 43 1
44 42 45 1
45 43 44 2
46 43 55 1
47 45 46 1
48 46 47 2
49 46 48 1
50 47 51 1
51 48 49 2
52 48 50 1
53 49 52 1
54 50 53 2
55 49 51 1
56 52 54 2
57 53 54 1
58 55 56 1
59 56 57 1
60 56 59 1
61 57 58 2
62 57 66 1
63 59 60 1
64 60 61 2
65 60 62 1
66 61 63 1
67 62 64 2
68 63 65 2
69 64 65 1
70 66 67 1
71 67 68 1
72 67 70 1
73 68 69 2
74 70 71 1
75 71 72 2
76 71 73 1
77 72 75 1
78 73 74 2
79 74 75 1
80 76 77 1
81 77 78 1
82 77 80 1
83 78 79 2
84 78 84 1
85 80 81 1
86 81 82 1
87 81 83 1
88 84 85 1
89 85 86 1
90 85 88 1
91 86 87 2
92 86 92 1
93 88 89 1
94 89 90 1
95 89 91 2
96 92 93 1
97 93 94 1
98 93 96 1
99 94 95 2
100 94 99 1
101 96 97 1
102 96 98 1
103 99 100 1
104 100 101 1
105 100 103 1
106 101 102 2
107 103 104 1
108 103 105 1
109 106 107 1
110 107 108 1
111 107 110 1
112 108 109 2
113 108 115 1
114 110 111 1
115 111 112 1
116 112 113 2
117 112 114 1
118 115 116 1
119 116 117 1
120 116 119 1
121 117 118 2
122 119 120 1
123 120 121 1
124 121 122 2
125 121 123 1
126 124 125 1
127 125 126 1
128 125 128 1
129 126 127 2
130 126 131 1
131 128 129 1
132 128 130 1
133 131 132 1
134 132 133 1
135 132 135 1
136 133 134 2
137 135 136 1
138 136 137 1
139 136 138 1
140 139 140 1
141 140 141 1
142 140 143 1
143 141 142 2
144 143 144 1
145 144 145 1
146 145 146 1
147 145 147 2
148 148 149 1
149 149 150 1
150 149 152 1
151 150 151 2
152 152 153 1
153 153 154 2
154 153 155 1
155 156 157 1
156 156 162 1
157 157 158 1
158 157 160 1
159 158 159 2
160 158 163 1
161 160 161 1
162 161 162 1
163 163 164 1
164 164 165 1
165 164 167 1
166 165 166 2
167 167 168 1
168 168 169 1
169 169 170 1
170 170 171 1
171 172 173 1
172 173 174 1
173 173 176 1
174 174 175 2
175 176 177 1
176 177 178 1
177 178 179 1
178 178 180 2
179 181 182 1
180 182 183 1
181 182 185 1
182 183 184 2
183 185 186 1
184 186 187 2
185 186 188 1
186 187 189 1
187 188 190 2
188 189 191 2
189 190 191 1
190 191 192 1
@<TRIPOS>SUBSTRUCTURE
1	PRO107	1	RESIDUE	1 B	PRO
2	THR108	8	RESIDUE	1 B	THR
3	SER109	15	RESIDUE	1 B	SER
4	GLU110	21	RESIDUE	1 B	GLU
5	ARG111	30	RESIDUE	1 B	ARG
6	TRP112	41	RESIDUE	1 B	TRP
7	PHE113	55	RESIDUE	1 B	PHE
8	HIE114	66	RESIDUE	1 B	HIE
9	LEU216	76	RESIDUE	1 B	LEU
10	ASN217	84	RESIDUE	1 B	ASN
11	THR218	92	RESIDUE	1 B	THR
12	THR219	99	RESIDUE	1 B	THR
13	GLU249	106	RESIDUE	1 B	GLU
14	GLU250	115	RESIDUE	1 B	GLU
15	THR253	124	RESIDUE	1 B	THR
16	LEU254	131	RESIDUE	1 B	LEU
17	GLN257	139	RESIDUE	1 B	GLN
18	ASP489	148	RESIDUE	1 B	ASP
19	PRO491	156	RESIDUE	1 B	PRO
20	LYS492	163	RESIDUE	1 B	LYS
21	GLN495	172	RESIDUE	1 B	GLN
22	TYR511	181	RESIDUE	1 B	TYR
