# created with PyMOL 2.5.2
@<TRIPOS>MOLECULE
JAK2_6WTQ_TargetProtein
153 146 20              
SMALL
USER_CHARGES
@<TRIPOS>ATOM
1	   N	15.739	-18.543	7.822	N.am	1	LEU855	0.000	
2	  CA	17.121	-18.678	7.375	C.3	1	LEU855	0.000	
3	   C	18.125	-18.142	8.388	C.2	1	LEU855	0.000	
4	   O	19.133	-18.799	8.663	O.2	1	LEU855	0.000	
5	  CB	17.306	-17.970	6.027	C.3	1	LEU855	0.000	
6	  CG	16.444	-18.486	4.871	C.3	1	LEU855	0.000	
7	 CD1	16.609	-17.619	3.628	C.3	1	LEU855	0.000	
8	 CD2	16.782	-19.934	4.558	C.3	1	LEU855	0.000	
9	   N	17.876	-16.963	8.952	N.am	2	GLY856	0.000	
10	  CA	18.813	-16.360	9.885	C.3	2	GLY856	0.000	
11	   C	18.209	-15.956	11.216	C.2	2	GLY856	0.000	
12	   O	17.290	-15.142	11.271	O.2	2	GLY856	0.000	
13	   N	15.561	-13.232	9.184	N.am	3	VAL863	0.000	
14	  CA	15.452	-13.455	7.748	C.3	3	VAL863	0.000	
15	   C	14.753	-14.787	7.528	C.2	3	VAL863	0.000	
16	   O	15.049	-15.772	8.214	O.2	3	VAL863	0.000	
17	  CB	16.835	-13.428	7.062	C.3	3	VAL863	0.000	
18	 CG1	16.693	-13.537	5.549	C.3	3	VAL863	0.000	
19	 CG2	17.581	-12.155	7.445	C.3	3	VAL863	0.000	
20	   N	14.108	-14.012	-0.144	N.am	4	ALA880	0.000	
21	  CA	14.437	-13.860	1.267	C.3	4	ALA880	0.000	
22	   C	13.781	-12.592	1.791	C.2	4	ALA880	0.000	
23	   O	13.796	-11.557	1.116	O.2	4	ALA880	0.000	
24	  CB	15.950	-13.801	1.482	C.3	4	ALA880	0.000	
25	   N	23.953	-8.629	-2.462	N.am	5	VAL911	0.000	
26	  CA	22.669	-9.319	-2.535	C.3	5	VAL911	0.000	
27	   C	21.607	-8.374	-3.097	C.2	5	VAL911	0.000	
28	   O	21.557	-7.185	-2.765	O.2	5	VAL911	0.000	
29	  CB	22.300	-9.875	-1.147	C.3	5	VAL911	0.000	
30	 CG1	22.004	-8.749	-0.153	C.3	5	VAL911	0.000	
31	 CG2	21.138	-10.865	-1.239	C.3	5	VAL911	0.000	
32	   N	14.447	-9.604	-0.713	N.am	6	MET929	0.000	
33	  CA	15.699	-9.755	-1.432	C.3	6	MET929	0.000	
34	   C	15.720	-11.100	-2.141	C.2	6	MET929	0.000	
35	   O	14.942	-12.006	-1.829	O.2	6	MET929	0.000	
36	  CB	16.905	-9.666	-0.490	C.3	6	MET929	0.000	
37	  CG	16.965	-8.402	0.345	C.3	6	MET929	0.000	
38	  SD	18.070	-8.641	1.741	S.3	6	MET929	0.000	
39	  CE	17.097	-9.719	2.789	C.3	6	MET929	0.000	
40	   N	16.634	-11.221	-3.099	N.am	7	GLU930	0.000	
41	  CA	16.860	-12.510	-3.733	C.3	7	GLU930	0.000	
42	   C	17.322	-13.536	-2.701	C.2	7	GLU930	0.000	
43	   O	17.990	-13.208	-1.713	O.2	7	GLU930	0.000	
44	  CB	17.897	-12.383	-4.848	C.3	7	GLU930	0.000	
45	  CG	19.289	-12.041	-4.362	C.3	7	GLU930	0.000	
46	  CD	20.324	-12.168	-5.457	C.2	7	GLU930	0.000	
47	 OE1	20.013	-12.798	-6.494	O.co2	7	GLU930	0.000	
48	 OE2	21.443	-11.643	-5.287	O.co2	7	GLU930	0.000	
49	   N	16.936	-14.786	-2.932	N.am	8	TYR931	0.000	
50	  CA	17.330	-15.903	-2.086	C.3	8	TYR931	0.000	
51	   C	18.625	-16.488	-2.629	C.2	8	TYR931	0.000	
52	   O	18.709	-16.811	-3.818	O.2	8	TYR931	0.000	
53	  CB	16.226	-16.962	-2.063	C.3	8	TYR931	0.000	
54	  CG	16.614	-18.254	-1.385	C.2	8	TYR931	0.000	
55	 CD1	16.855	-18.296	-0.018	C.2	8	TYR931	0.000	
56	 CD2	16.720	-19.438	-2.109	C.2	8	TYR931	0.000	
57	 CE1	17.201	-19.476	0.610	C.2	8	TYR931	0.000	
58	 CE2	17.063	-20.628	-1.490	C.2	8	TYR931	0.000	
59	  CZ	17.302	-20.640	-0.127	C.2	8	TYR931	0.000	
60	  OH	17.644	-21.819	0.506	O.3	8	TYR931	0.000	
61	   N	19.640	-16.608	-1.766	N.am	9	LEU932	0.000	
62	  CA	20.904	-17.211	-2.165	C.3	9	LEU932	0.000	
63	   C	20.988	-18.600	-1.552	C.2	9	LEU932	0.000	
64	   O	21.104	-18.717	-0.325	O.2	9	LEU932	0.000	
65	  CB	22.082	-16.347	-1.716	C.3	9	LEU932	0.000	
66	  CG	21.982	-14.919	-2.267	C.3	9	LEU932	0.000	
67	 CD1	23.209	-14.087	-1.921	C.3	9	LEU932	0.000	
68	 CD2	21.753	-14.947	-3.771	C.3	9	LEU932	0.000	
69	   N	20.941	-19.675	-2.341	N.am	10	PRO933	0.000	
70	  CA	20.630	-20.989	-1.763	C.3	10	PRO933	0.000	
71	   C	21.768	-21.663	-1.006	C.2	10	PRO933	0.000	
72	   O	21.502	-22.638	-0.289	O.2	10	PRO933	0.000	
73	  CB	20.213	-21.811	-2.987	C.3	10	PRO933	0.000	
74	  CG	20.904	-21.179	-4.121	C.3	10	PRO933	0.000	
75	  CD	21.030	-19.713	-3.807	C.3	10	PRO933	0.000	
76	   N	23.011	-21.194	-1.101	N.am	11	TYR934	0.000	
77	  CA	24.091	-21.852	-0.376	C.3	11	TYR934	0.000	
78	   C	24.393	-21.199	0.977	C.2	11	TYR934	0.000	
79	   O	25.322	-21.628	1.671	O.2	11	TYR934	0.000	
80	  CB	25.344	-21.934	-1.253	C.3	11	TYR934	0.000	
81	  CG	25.276	-23.036	-2.289	C.2	11	TYR934	0.000	
82	 CD1	24.313	-24.033	-2.205	C.2	11	TYR934	0.000	
83	 CD2	26.159	-23.074	-3.355	C.2	11	TYR934	0.000	
84	 CE1	24.234	-25.048	-3.151	C.2	11	TYR934	0.000	
85	 CE2	26.094	-24.098	-4.312	C.2	11	TYR934	0.000	
86	  CZ	25.127	-25.071	-4.198	C.2	11	TYR934	0.000	
87	  OH	25.059	-26.074	-5.134	O.3	11	TYR934	0.000	
88	   N	23.611	-20.202	1.386	N.am	12	GLY935	0.000	
89	  CA	23.724	-19.723	2.754	C.3	12	GLY935	0.000	
90	   C	24.984	-18.905	2.965	C.2	12	GLY935	0.000	
91	   O	25.554	-18.327	2.039	O.2	12	GLY935	0.000	
92	   N	25.434	-18.863	4.213	N.am	13	SER936	0.000	
93	  CA	26.583	-18.012	4.439	C.3	13	SER936	0.000	
94	   C	27.865	-18.739	4.041	C.2	13	SER936	0.000	
95	   O	27.944	-19.976	4.001	O.2	13	SER936	0.000	
96	  CB	26.649	-17.537	5.892	C.3	13	SER936	0.000	
97	  OG	27.497	-18.347	6.679	O.3	13	SER936	0.000	
98	   N	29.131	-21.446	6.597	N.am	14	ASP939	0.000	
99	  CA	28.596	-22.788	6.485	C.3	14	ASP939	0.000	
100	   C	29.094	-23.443	5.215	C.2	14	ASP939	0.000	
101	   O	29.434	-24.628	5.215	O.2	14	ASP939	0.000	
102	  CB	27.068	-22.758	6.509	C.3	14	ASP939	0.000	
103	  CG	26.519	-22.286	7.841	C.2	14	ASP939	0.000	
104	 OD1	26.933	-22.836	8.886	O.co2	14	ASP939	0.000	
105	 OD2	25.684	-21.360	7.840	O.co2	14	ASP939	0.000	
106	   N	31.491	-26.773	5.010	N.am	15	LYS943	0.000	
107	  CA	31.023	-28.012	4.408	C.3	15	LYS943	0.000	
108	   C	31.874	-28.454	3.222	C.2	15	LYS943	0.000	
109	   O	31.905	-29.649	2.914	O.2	15	LYS943	0.000	
110	  CB	29.561	-27.878	3.968	C.3	15	LYS943	0.000	
111	  CG	28.634	-27.749	5.178	C.3	15	LYS943	0.000	
112	  CD	27.273	-27.183	4.768	C.3	15	LYS943	0.000	
113	  CE	26.391	-26.933	5.994	C.3	15	LYS943	0.000	
114	  NZ	25.117	-26.295	5.594	N.4	15	LYS943	0.000	
115	   N	30.629	-14.104	8.264	N.am	16	ARG980	0.000	
116	  CA	29.238	-14.342	8.642	C.3	16	ARG980	0.000	
117	   C	28.264	-13.521	7.802	C.2	16	ARG980	0.000	
118	   O	27.092	-13.899	7.678	O.2	16	ARG980	0.000	
119	  CB	29.037	-14.037	10.138	C.3	16	ARG980	0.000	
120	  CG	29.322	-12.591	10.537	C.3	16	ARG980	0.000	
121	  CD	29.225	-12.322	12.062	C.3	16	ARG980	0.000	
122	  NE	29.281	-10.883	12.331	N.pl3	16	ARG980	0.000	
123	  CZ	30.382	-10.192	12.640	C.cat	16	ARG980	0.000	
124	 NH1	31.570	-10.783	12.768	N.pl3	16	ARG980	0.000	
125	 NH2	30.293	-8.886	12.840	N.pl3	16	ARG980	0.000	
126	   N	28.725	-12.426	7.198	N.am	17	ASN981	0.000	
127	  CA	27.858	-11.530	6.448	C.3	17	ASN981	0.000	
128	   C	27.995	-11.698	4.944	C.2	17	ASN981	0.000	
129	   O	27.428	-10.906	4.190	O.2	17	ASN981	0.000	
130	  CB	28.119	-10.082	6.873	C.3	17	ASN981	0.000	
131	  CG	27.539	-9.796	8.240	C.2	17	ASN981	0.000	
132	 ND2	28.198	-8.934	9.006	N.pl3	17	ASN981	0.000	
133	 OD1	26.502	-10.370	8.609	O.2	17	ASN981	0.000	
134	   N	27.258	-14.177	1.717	N.am	18	LEU983	0.000	
135	  CA	26.368	-15.257	1.316	C.3	18	LEU983	0.000	
136	   C	26.848	-15.856	0.001	C.2	18	LEU983	0.000	
137	   O	27.533	-15.199	-0.785	O.2	18	LEU983	0.000	
138	  CB	24.927	-14.749	1.142	C.3	18	LEU983	0.000	
139	  CG	24.207	-14.236	2.382	C.3	18	LEU983	0.000	
140	 CD1	22.951	-13.495	1.947	C.3	18	LEU983	0.000	
141	 CD2	23.856	-15.382	3.317	C.3	18	LEU983	0.000	
142	   N	26.024	-9.719	2.113	N.am	19	GLY993	0.000	
143	  CA	24.664	-10.203	2.292	C.3	19	GLY993	0.000	
144	   C	23.856	-9.595	3.416	C.2	19	GLY993	0.000	
145	   O	22.684	-9.948	3.609	O.2	19	GLY993	0.000	
146	   N	24.463	-8.682	4.167	N.am	20	ASP994	0.000	
147	  CA	23.737	-7.978	5.211	C.3	20	ASP994	0.000	
148	   C	24.302	-6.570	5.328	C.2	20	ASP994	0.000	
149	   O	25.520	-6.374	5.251	O.2	20	ASP994	0.000	
150	  CB	23.847	-8.702	6.551	C.3	20	ASP994	0.000	
151	  CG	22.955	-8.091	7.600	C.2	20	ASP994	0.000	
152	 OD1	21.765	-8.469	7.656	O.co2	20	ASP994	0.000	
153	 OD2	23.433	-7.211	8.338	O.co2	20	ASP994	0.000	
@<TRIPOS>BOND
1 1 2 1
2 2 3 1
3 2 5 1
4 3 4 2
5 3 9 1
6 5 6 1
7 6 7 1
8 6 8 1
9 9 10 1
10 10 11 1
11 11 12 2
12 13 14 1
13 14 15 1
14 14 17 1
15 15 16 2
16 17 18 1
17 17 19 1
18 20 21 1
19 21 22 1
20 21 24 1
21 22 23 2
22 25 26 1
23 26 27 1
24 26 29 1
25 27 28 2
26 29 30 1
27 29 31 1
28 32 33 1
29 33 34 1
30 33 36 1
31 34 35 2
32 34 40 1
33 36 37 1
34 37 38 1
35 38 39 1
36 40 41 1
37 41 42 1
38 41 44 1
39 42 43 2
40 42 49 1
41 44 45 1
42 45 46 1
43 46 47 2
44 46 48 1
45 49 50 1
46 50 51 1
47 50 53 1
48 51 52 2
49 51 61 1
50 53 54 1
51 54 55 2
52 54 56 1
53 55 57 1
54 56 58 2
55 57 59 2
56 58 59 1
57 59 60 1
58 61 62 1
59 62 63 1
60 62 65 1
61 63 64 2
62 63 69 1
63 65 66 1
64 66 67 1
65 66 68 1
66 69 70 1
67 69 75 1
68 70 71 1
69 70 73 1
70 71 72 2
71 71 76 1
72 73 74 1
73 74 75 1
74 76 77 1
75 77 78 1
76 77 80 1
77 78 79 2
78 78 88 1
79 80 81 1
80 81 82 2
81 81 83 1
82 82 84 1
83 83 85 2
84 84 86 2
85 85 86 1
86 86 87 1
87 88 89 1
88 89 90 1
89 90 91 2
90 90 92 1
91 92 93 1
92 93 94 1
93 93 96 1
94 94 95 2
95 96 97 1
96 98 99 1
97 99 100 1
98 99 102 1
99 100 101 2
100 102 103 1
101 103 104 2
102 103 105 1
103 106 107 1
104 107 108 1
105 107 110 1
106 108 109 2
107 110 111 1
108 111 112 1
109 112 113 1
110 113 114 1
111 115 116 1
112 116 117 1
113 116 119 1
114 117 118 2
115 117 126 1
116 119 120 1
117 120 121 1
118 121 122 1
119 122 123 1
120 123 124 2
121 123 125 1
122 126 127 1
123 127 128 1
124 127 130 1
125 128 129 2
126 130 131 1
127 131 132 1
128 131 133 2
129 134 135 1
130 135 136 1
131 135 138 1
132 136 137 2
133 138 139 1
134 139 140 1
135 139 141 1
136 142 143 1
137 143 144 1
138 144 145 2
139 144 146 1
140 146 147 1
141 147 148 1
142 147 150 1
143 148 149 2
144 150 151 1
145 151 152 2
146 151 153 1
@<TRIPOS>SUBSTRUCTURE
1	LEU855	1	RESIDUE	1 B	LEU
2	GLY856	9	RESIDUE	1 B	GLY
3	VAL863	13	RESIDUE	1 B	VAL
4	ALA880	20	RESIDUE	1 B	ALA
5	VAL911	25	RESIDUE	1 B	VAL
6	MET929	32	RESIDUE	1 B	MET
7	GLU930	40	RESIDUE	1 B	GLU
8	TYR931	49	RESIDUE	1 B	TYR
9	LEU932	61	RESIDUE	1 B	LEU
10	PRO933	69	RESIDUE	1 B	PRO
11	TYR934	76	RESIDUE	1 B	TYR
12	GLY935	88	RESIDUE	1 B	GLY
13	SER936	92	RESIDUE	1 B	SER
14	ASP939	98	RESIDUE	1 B	ASP
15	LYS943	106	RESIDUE	1 B	LYS
16	ARG980	115	RESIDUE	1 B	ARG
17	ASN981	126	RESIDUE	1 B	ASN
18	LEU983	134	RESIDUE	1 B	LEU
19	GLY993	142	RESIDUE	1 B	GLY
20	ASP994	146	RESIDUE	1 B	ASP
