# created with PyMOL 2.5.2
@<TRIPOS>MOLECULE
JAK2_6VGL_TargetProtein
147 140 20              
SMALL
USER_CHARGES
@<TRIPOS>ATOM
1	   N	4.955	-33.497	53.503	N.am	1	LEU855	0.000	
2	  CA	6.281	-33.127	54.010	C.3	1	LEU855	0.000	
3	   C	6.247	-32.153	55.180	C.2	1	LEU855	0.000	
4	   O	7.171	-32.158	56.007	O.2	1	LEU855	0.000	
5	  CB	7.123	-32.512	52.894	C.3	1	LEU855	0.000	
6	  CG	7.462	-33.492	51.764	C.3	1	LEU855	0.000	
7	 CD1	8.060	-32.690	50.596	C.3	1	LEU855	0.000	
8	 CD2	8.431	-34.585	52.210	C.3	1	LEU855	0.000	
9	   N	5.244	-31.291	55.243	N.am	2	GLY856	0.000	
10	  CA	5.154	-30.340	56.333	C.3	2	GLY856	0.000	
11	   C	3.784	-29.709	56.359	C.2	2	GLY856	0.000	
12	   O	3.062	-29.703	55.360	O.2	2	GLY856	0.000	
13	   N	3.452	-29.155	57.517	N.am	3	LYS857	0.000	
14	  CA	2.155	-28.537	57.734	C.3	3	LYS857	0.000	
15	   C	2.427	-27.283	58.552	C.2	3	LYS857	0.000	
16	   O	3.131	-27.336	59.567	O.2	3	LYS857	0.000	
17	  CB	1.209	-29.532	58.430	C.3	3	LYS857	0.000	
18	  CG	-0.240	-29.139	58.406	C.3	3	LYS857	0.000	
19	  CD	-1.104	-30.050	59.261	C.3	3	LYS857	0.000	
20	  CE	-2.554	-29.568	59.223	C.3	3	LYS857	0.000	
21	  NZ	-3.156	-29.312	60.575	N.4	3	LYS857	0.000	
22	   N	1.943	-26.148	58.067	N.am	4	GLY858	0.000	
23	  CA	2.192	-24.874	58.729	C.3	4	GLY858	0.000	
24	   C	1.056	-23.927	58.423	C.2	4	GLY858	0.000	
25	   O	1.004	-23.313	57.346	O.2	4	GLY858	0.000	
26	   N	-1.251	-23.663	55.517	N.am	5	GLY861	0.000	
27	  CA	-0.791	-24.351	54.326	C.3	5	GLY861	0.000	
28	   C	-0.093	-25.655	54.651	C.2	5	GLY861	0.000	
29	   O	0.191	-25.978	55.806	O.2	5	GLY861	0.000	
30	   N	0.170	-26.416	53.593	N.am	6	SER862	0.000	
31	  CA	0.931	-27.635	53.745	C.3	6	SER862	0.000	
32	   C	1.733	-27.875	52.476	C.2	6	SER862	0.000	
33	   O	1.457	-27.314	51.419	O.2	6	SER862	0.000	
34	  CB	0.032	-28.832	54.061	C.3	6	SER862	0.000	
35	  OG	-0.727	-29.198	52.935	O.3	6	SER862	0.000	
36	   N	2.753	-28.712	52.612	N.am	7	VAL863	0.000	
37	  CA	3.625	-29.062	51.508	C.3	7	VAL863	0.000	
38	   C	3.633	-30.581	51.404	C.2	7	VAL863	0.000	
39	   O	3.797	-31.289	52.411	O.2	7	VAL863	0.000	
40	  CB	5.048	-28.491	51.692	C.3	7	VAL863	0.000	
41	 CG1	5.999	-29.065	50.634	C.3	7	VAL863	0.000	
42	 CG2	5.025	-26.940	51.574	C.3	7	VAL863	0.000	
43	   N	8.039	-30.671	45.153	N.am	8	ALA880	0.000	
44	  CA	7.333	-30.249	46.360	C.3	8	ALA880	0.000	
45	   C	6.157	-29.337	45.994	C.2	8	ALA880	0.000	
46	   O	6.290	-28.428	45.174	O.2	8	ALA880	0.000	
47	  CB	8.268	-29.514	47.341	C.3	8	ALA880	0.000	
48	   N	3.075	-26.894	47.519	N.am	9	LYS882	0.000	
49	  CA	2.481	-26.167	48.631	C.3	9	LYS882	0.000	
50	   C	1.048	-25.807	48.259	C.2	9	LYS882	0.000	
51	   O	0.779	-25.367	47.141	O.2	9	LYS882	0.000	
52	  CB	3.261	-24.887	48.970	C.3	9	LYS882	0.000	
53	  CG	2.742	-24.225	50.286	C.3	9	LYS882	0.000	
54	  CD	3.715	-23.188	50.839	C.3	9	LYS882	0.000	
55	  CE	3.197	-22.616	52.128	C.3	9	LYS882	0.000	
56	  NZ	4.032	-21.499	52.648	N.4	9	LYS882	0.000	
57	   N	15.111	-21.871	48.336	N.am	10	VAL911	0.000	
58	  CA	14.550	-23.018	47.623	C.3	10	VAL911	0.000	
59	   C	13.993	-22.554	46.275	C.2	10	VAL911	0.000	
60	   O	13.435	-21.451	46.159	O.2	10	VAL911	0.000	
61	  CB	13.484	-23.728	48.482	C.3	10	VAL911	0.000	
62	 CG1	12.305	-22.813	48.706	C.3	10	VAL911	0.000	
63	 CG2	13.045	-25.076	47.832	C.3	10	VAL911	0.000	
64	   N	7.663	-26.415	43.684	N.am	11	MET929	0.000	
65	  CA	9.041	-26.078	44.027	C.3	11	MET929	0.000	
66	   C	9.911	-27.312	43.857	C.2	11	MET929	0.000	
67	   O	9.410	-28.436	43.821	O.2	11	MET929	0.000	
68	  CB	9.139	-25.577	45.470	C.3	11	MET929	0.000	
69	  CG	8.358	-24.272	45.763	C.3	11	MET929	0.000	
70	  SD	8.319	-23.922	47.541	S.3	11	MET929	0.000	
71	  CE	7.027	-25.050	48.171	C.3	11	MET929	0.000	
72	   N	11.229	-27.103	43.758	N.am	12	GLU930	0.000	
73	  CA	12.135	-28.239	43.852	C.3	12	GLU930	0.000	
74	   C	11.941	-28.962	45.182	C.2	12	GLU930	0.000	
75	   O	11.668	-28.348	46.223	O.2	12	GLU930	0.000	
76	  CB	13.591	-27.794	43.718	C.3	12	GLU930	0.000	
77	  CG	14.057	-26.894	44.880	C.3	12	GLU930	0.000	
78	  CD	15.529	-26.527	44.777	C.2	12	GLU930	0.000	
79	 OE1	16.285	-27.173	44.032	O.co2	12	GLU930	0.000	
80	 OE2	15.955	-25.656	45.516	O.co2	12	GLU930	0.000	
81	   N	12.096	-30.289	45.132	N.am	13	TYR931	0.000	
82	  CA	12.062	-31.142	46.308	C.3	13	TYR931	0.000	
83	   C	13.482	-31.266	46.871	C.2	13	TYR931	0.000	
84	   O	14.412	-31.671	46.152	O.2	13	TYR931	0.000	
85	  CB	11.512	-32.527	45.915	C.3	13	TYR931	0.000	
86	  CG	11.683	-33.594	46.990	C.2	13	TYR931	0.000	
87	 CD1	10.982	-33.516	48.194	C.2	13	TYR931	0.000	
88	 CD2	12.518	-34.669	46.793	C.2	13	TYR931	0.000	
89	 CE1	11.136	-34.500	49.178	C.2	13	TYR931	0.000	
90	 CE2	12.667	-35.656	47.754	C.2	13	TYR931	0.000	
91	  CZ	11.981	-35.559	48.944	C.2	13	TYR931	0.000	
92	  OH	12.185	-36.539	49.898	O.3	13	TYR931	0.000	
93	   N	13.639	-30.973	48.164	N.am	14	LEU932	0.000	
94	  CA	14.940	-31.130	48.821	C.3	14	LEU932	0.000	
95	   C	14.893	-32.366	49.714	C.2	14	LEU932	0.000	
96	   O	14.023	-32.454	50.592	O.2	14	LEU932	0.000	
97	  CB	15.317	-29.884	49.623	C.3	14	LEU932	0.000	
98	  CG	15.500	-28.629	48.721	C.3	14	LEU932	0.000	
99	 CD1	16.077	-27.453	49.534	C.3	14	LEU932	0.000	
100	 CD2	16.381	-28.906	47.534	C.3	14	LEU932	0.000	
101	   N	13.152	-24.691	61.563	N.am	15	ARG980	0.000	
102	  CA	12.092	-25.471	60.925	C.3	15	ARG980	0.000	
103	   C	11.750	-24.944	59.537	C.2	15	ARG980	0.000	
104	   O	11.083	-25.652	58.785	O.2	15	ARG980	0.000	
105	  CB	10.816	-25.498	61.798	C.3	15	ARG980	0.000	
106	  CG	10.222	-24.130	61.990	C.3	15	ARG980	0.000	
107	  CD	9.015	-24.075	62.940	C.3	15	ARG980	0.000	
108	  NE	8.603	-22.669	63.095	N.pl3	15	ARG980	0.000	
109	  CZ	9.003	-21.847	64.074	C.cat	15	ARG980	0.000	
110	 NH1	9.792	-22.275	65.080	N.pl3	15	ARG980	0.000	
111	 NH2	8.594	-20.583	64.067	N.pl3	15	ARG980	0.000	
112	   N	12.180	-23.725	59.184	N.am	16	ASN981	0.000	
113	  CA	11.904	-23.136	57.875	C.3	16	ASN981	0.000	
114	   C	13.136	-23.103	56.984	C.2	16	ASN981	0.000	
115	   O	13.197	-22.317	56.032	O.2	16	ASN981	0.000	
116	  CB	11.345	-21.723	58.049	C.3	16	ASN981	0.000	
117	  CG	9.960	-21.761	58.614	C.2	16	ASN981	0.000	
118	 ND2	9.605	-20.790	59.434	N.pl3	16	ASN981	0.000	
119	 OD1	9.212	-22.691	58.312	O.2	16	ASN981	0.000	
120	   N	14.135	-23.892	57.321	N.am	17	ILE982	0.000	
121	  CA	15.348	-24.073	56.539	C.3	17	ILE982	0.000	
122	   C	15.395	-25.531	56.111	C.2	17	ILE982	0.000	
123	   O	15.079	-26.427	56.915	O.2	17	ILE982	0.000	
124	  CB	16.588	-23.721	57.393	C.3	17	ILE982	0.000	
125	 CG1	16.441	-22.322	58.020	C.3	17	ILE982	0.000	
126	 CG2	17.872	-23.892	56.558	C.3	17	ILE982	0.000	
127	 CD1	16.655	-21.240	57.077	C.3	17	ILE982	0.000	
128	   N	15.747	-25.773	54.847	N.am	18	LEU983	0.000	
129	  CA	15.767	-27.111	54.286	C.3	18	LEU983	0.000	
130	   C	17.193	-27.498	53.896	C.2	18	LEU983	0.000	
131	   O	18.032	-26.642	53.589	O.2	18	LEU983	0.000	
132	  CB	14.846	-27.209	53.049	C.3	18	LEU983	0.000	
133	  CG	13.336	-26.948	53.257	C.3	18	LEU983	0.000	
134	 CD1	12.595	-26.884	51.920	C.3	18	LEU983	0.000	
135	 CD2	12.652	-28.008	54.152	C.3	18	LEU983	0.000	
136	   N	13.489	-22.177	53.224	N.am	19	GLY993	0.000	
137	  CA	12.628	-23.116	52.506	C.3	19	GLY993	0.000	
138	   C	11.160	-22.751	52.445	C.2	19	GLY993	0.000	
139	   O	10.361	-23.437	51.795	O.2	19	GLY993	0.000	
140	   N	10.784	-21.706	53.160	N.am	20	ASP994	0.000	
141	  CA	9.394	-21.287	53.248	C.3	20	ASP994	0.000	
142	   C	9.316	-19.782	53.424	C.2	20	ASP994	0.000	
143	   O	10.126	-19.197	54.151	O.2	20	ASP994	0.000	
144	  CB	8.662	-21.941	54.411	C.3	20	ASP994	0.000	
145	  CG	7.162	-21.730	54.315	C.2	20	ASP994	0.000	
146	 OD1	6.472	-22.530	53.623	O.co2	20	ASP994	0.000	
147	 OD2	6.691	-20.722	54.880	O.co2	20	ASP994	0.000	
@<TRIPOS>BOND
1 1 2 1
2 2 3 1
3 2 5 1
4 3 4 2
5 3 9 1
6 5 6 1
7 6 7 1
8 6 8 1
9 9 10 1
10 10 11 1
11 11 12 2
12 11 13 1
13 13 14 1
14 14 15 1
15 14 17 1
16 15 16 2
17 15 22 1
18 17 18 1
19 18 19 1
20 19 20 1
21 20 21 1
22 22 23 1
23 23 24 1
24 24 25 2
25 26 27 1
26 27 28 1
27 28 29 2
28 28 30 1
29 30 31 1
30 31 32 1
31 31 34 1
32 32 33 2
33 32 36 1
34 34 35 1
35 36 37 1
36 37 38 1
37 37 40 1
38 38 39 2
39 40 41 1
40 40 42 1
41 43 44 1
42 44 45 1
43 44 47 1
44 45 46 2
45 48 49 1
46 49 50 1
47 49 52 1
48 50 51 2
49 52 53 1
50 53 54 1
51 54 55 1
52 55 56 1
53 57 58 1
54 58 59 1
55 58 61 1
56 59 60 2
57 61 62 1
58 61 63 1
59 64 65 1
60 65 66 1
61 65 68 1
62 66 67 2
63 66 72 1
64 68 69 1
65 69 70 1
66 70 71 1
67 72 73 1
68 73 74 1
69 73 76 1
70 74 75 2
71 74 81 1
72 76 77 1
73 77 78 1
74 78 79 2
75 78 80 1
76 81 82 1
77 82 83 1
78 82 85 1
79 83 84 2
80 83 93 1
81 85 86 1
82 86 87 2
83 86 88 1
84 87 89 1
85 88 90 2
86 89 91 2
87 90 91 1
88 91 92 1
89 93 94 1
90 94 95 1
91 94 97 1
92 95 96 2
93 97 98 1
94 98 99 1
95 98 100 1
96 101 102 1
97 102 103 1
98 102 105 1
99 103 104 2
100 103 112 1
101 105 106 1
102 106 107 1
103 107 108 1
104 108 109 1
105 109 110 2
106 109 111 1
107 112 113 1
108 113 114 1
109 113 116 1
110 114 115 2
111 114 120 1
112 116 117 1
113 117 118 1
114 117 119 2
115 120 121 1
116 121 122 1
117 121 124 1
118 122 123 2
119 122 128 1
120 124 125 1
121 124 126 1
122 125 127 1
123 128 129 1
124 129 130 1
125 129 132 1
126 130 131 2
127 132 133 1
128 133 134 1
129 133 135 1
130 136 137 1
131 137 138 1
132 138 139 2
133 138 140 1
134 140 141 1
135 141 142 1
136 141 144 1
137 142 143 2
138 144 145 1
139 145 146 2
140 145 147 1
@<TRIPOS>SUBSTRUCTURE
1	LEU855	1	RESIDUE	1 B	LEU
2	GLY856	9	RESIDUE	1 B	GLY
3	LYS857	13	RESIDUE	1 B	LYS
4	GLY858	22	RESIDUE	1 B	GLY
5	GLY861	26	RESIDUE	1 B	GLY
6	SER862	30	RESIDUE	1 B	SER
7	VAL863	36	RESIDUE	1 B	VAL
8	ALA880	43	RESIDUE	1 B	ALA
9	LYS882	48	RESIDUE	1 B	LYS
10	VAL911	57	RESIDUE	1 B	VAL
11	MET929	64	RESIDUE	1 B	MET
12	GLU930	72	RESIDUE	1 B	GLU
13	TYR931	81	RESIDUE	1 B	TYR
14	LEU932	93	RESIDUE	1 B	LEU
15	ARG980	101	RESIDUE	1 B	ARG
16	ASN981	112	RESIDUE	1 B	ASN
17	ILE982	120	RESIDUE	1 B	ILE
18	LEU983	128	RESIDUE	1 B	LEU
19	GLY993	136	RESIDUE	1 B	GLY
20	ASP994	140	RESIDUE	1 B	ASP
