# created with PyMOL 2.5.2
@<TRIPOS>MOLECULE
BTK_6J6M_TargetProtein
177 165 23              
SMALL
USER_CHARGES
@<TRIPOS>ATOM
1	   N	0.563	10.394	106.028	N.am	1	LEU408	0.000	
2	  CA	0.907	10.980	107.320	C.3	1	LEU408	0.000	
3	   C	0.462	10.154	108.516	C.2	1	LEU408	0.000	
4	   O	0.847	10.478	109.644	O.2	1	LEU408	0.000	
5	  CB	0.318	12.389	107.462	C.3	1	LEU408	0.000	
6	  CG	0.836	13.422	106.469	C.3	1	LEU408	0.000	
7	 CD1	0.094	14.736	106.661	C.3	1	LEU408	0.000	
8	 CD2	2.336	13.606	106.627	C.3	1	LEU408	0.000	
9	   N	-0.339	9.126	108.318	N.am	2	GLY409	0.000	
10	  CA	-0.770	8.313	109.428	C.3	2	GLY409	0.000	
11	   C	-2.262	8.104	109.416	C.2	2	GLY409	0.000	
12	   O	-2.967	8.450	108.457	O.2	2	GLY409	0.000	
13	   N	-2.751	7.524	110.509	N.am	3	THR410	0.000	
14	  CA	-4.150	7.154	110.639	C.3	3	THR410	0.000	
15	   C	-4.648	7.546	112.020	C.2	3	THR410	0.000	
16	   O	-3.888	7.584	112.991	O.2	3	THR410	0.000	
17	  CB	-4.356	5.644	110.447	C.3	3	THR410	0.000	
18	 CG2	-5.837	5.293	110.471	C.3	3	THR410	0.000	
19	 OG1	-3.793	5.241	109.193	O.3	3	THR410	0.000	
20	   N	-4.670	10.247	106.863	N.am	4	VAL416	0.000	
21	  CA	-4.291	11.633	106.625	C.3	4	VAL416	0.000	
22	   C	-3.107	11.632	105.668	C.2	4	VAL416	0.000	
23	   O	-2.198	10.805	105.797	O.2	4	VAL416	0.000	
24	  CB	-3.931	12.353	107.942	C.3	4	VAL416	0.000	
25	 CG1	-3.721	13.842	107.694	C.3	4	VAL416	0.000	
26	 CG2	-5.021	12.138	108.979	C.3	4	VAL416	0.000	
27	   N	-2.556	19.529	104.205	N.am	5	ALA428	0.000	
28	  CA	-2.887	18.215	104.725	C.3	5	ALA428	0.000	
29	   C	-4.318	17.889	104.324	C.2	5	ALA428	0.000	
30	   O	-5.176	18.776	104.215	O.2	5	ALA428	0.000	
31	  CB	-2.784	18.174	106.249	C.3	5	ALA428	0.000	
32	   N	-7.286	15.244	105.436	N.am	6	LYS430	0.000	
33	  CA	-7.834	14.233	106.338	C.3	6	LYS430	0.000	
34	   C	-9.050	13.610	105.661	C.2	6	LYS430	0.000	
35	   O	-10.014	14.316	105.338	O.2	6	LYS430	0.000	
36	  CB	-8.211	14.832	107.699	C.3	6	LYS430	0.000	
37	  CG	-8.924	13.845	108.644	C.3	6	LYS430	0.000	
38	  CD	-8.320	13.795	110.055	C.3	6	LYS430	0.000	
39	  CE	-8.803	14.934	110.939	C.3	6	LYS430	0.000	
40	  NZ	-8.131	14.917	112.283	N.4	6	LYS430	0.000	
41	   N	-16.223	27.019	110.932	N.am	7	MET449	0.000	
42	  CA	-14.802	26.818	111.198	C.3	7	MET449	0.000	
43	   C	-13.922	27.568	110.205	C.2	7	MET449	0.000	
44	   O	-12.819	28.000	110.561	O.2	7	MET449	0.000	
45	  CB	-14.485	25.327	111.205	C.3	7	MET449	0.000	
46	  CG	-15.220	24.564	112.302	C.3	7	MET449	0.000	
47	  SD	-15.222	22.800	111.981	S.3	7	MET449	0.000	
48	  CE	-13.508	22.373	112.247	C.3	7	MET449	0.000	
49	   N	-4.827	25.668	113.741	N.am	8	VAL458	0.000	
50	  CA	-4.689	25.050	112.421	C.3	8	VAL458	0.000	
51	   C	-5.787	25.562	111.496	C.2	8	VAL458	0.000	
52	   O	-6.980	25.491	111.822	O.2	8	VAL458	0.000	
53	  CB	-4.719	23.520	112.547	C.3	8	VAL458	0.000	
54	 CG1	-4.840	22.861	111.175	C.3	8	VAL458	0.000	
55	 CG2	-3.485	23.019	113.286	C.3	8	VAL458	0.000	
56	   N	-11.112	16.843	104.491	N.am	9	ILE472	0.000	
57	  CA	-10.879	18.108	105.179	C.3	9	ILE472	0.000	
58	   C	-9.482	18.569	104.787	C.2	9	ILE472	0.000	
59	   O	-8.504	17.837	104.987	O.2	9	ILE472	0.000	
60	  CB	-10.968	17.947	106.703	C.3	9	ILE472	0.000	
61	 CG1	-12.243	17.219	107.115	C.3	9	ILE472	0.000	
62	 CG2	-10.888	19.302	107.386	C.3	9	ILE472	0.000	
63	 CD1	-12.309	16.986	108.616	C.3	9	ILE472	0.000	
64	   N	-6.454	21.288	105.142	N.am	10	THR474	0.000	
65	  CA	-5.965	22.192	106.172	C.3	10	THR474	0.000	
66	   C	-4.510	22.558	105.931	C.2	10	THR474	0.000	
67	   O	-3.801	21.974	105.101	O.2	10	THR474	0.000	
68	  CB	-6.074	21.590	107.585	C.3	10	THR474	0.000	
69	 CG2	-7.431	20.935	107.789	C.3	10	THR474	0.000	
70	 OG1	-5.052	20.606	107.770	O.3	10	THR474	0.000	
71	   N	-4.078	23.542	106.711	N.am	11	GLU475	0.000	
72	  CA	-2.673	23.866	106.869	C.3	11	GLU475	0.000	
73	   C	-1.874	22.611	107.219	C.2	11	GLU475	0.000	
74	   O	-2.345	21.741	107.957	O.2	11	GLU475	0.000	
75	  CB	-2.618	24.886	108.010	C.3	11	GLU475	0.000	
76	  CG	-1.275	25.205	108.573	C.3	11	GLU475	0.000	
77	  CD	-1.348	26.318	109.594	C.2	11	GLU475	0.000	
78	 OE1	-0.283	26.875	109.884	O.co2	11	GLU475	0.000	
79	 OE2	-2.452	26.635	110.107	O.co2	11	GLU475	0.000	
80	   N	-0.661	22.522	106.678	N.am	12	TYR476	0.000	
81	  CA	0.199	21.357	106.866	C.3	12	TYR476	0.000	
82	   C	1.169	21.576	108.023	C.2	12	TYR476	0.000	
83	   O	1.881	22.583	108.064	O.2	12	TYR476	0.000	
84	  CB	0.985	21.080	105.586	C.3	12	TYR476	0.000	
85	  CG	2.010	19.972	105.700	C.2	12	TYR476	0.000	
86	 CD1	1.660	18.715	106.191	C.2	12	TYR476	0.000	
87	 CD2	3.320	20.176	105.302	C.2	12	TYR476	0.000	
88	 CE1	2.594	17.706	106.293	C.2	12	TYR476	0.000	
89	 CE2	4.262	19.169	105.395	C.2	12	TYR476	0.000	
90	  CZ	3.893	17.936	105.885	C.2	12	TYR476	0.000	
91	  OH	4.818	16.921	105.970	O.3	12	TYR476	0.000	
92	   N	1.204	20.624	108.954	N.am	13	MET477	0.000	
93	  CA	2.016	20.704	110.170	C.3	13	MET477	0.000	
94	   C	3.028	19.559	110.112	C.2	13	MET477	0.000	
95	   O	2.720	18.420	110.481	O.2	13	MET477	0.000	
96	  CB	1.096	20.611	111.382	C.3	13	MET477	0.000	
97	  CG	0.008	21.677	111.394	C.3	13	MET477	0.000	
98	  SD	0.634	23.347	111.669	S.3	13	MET477	0.000	
99	  CE	1.082	23.224	113.396	C.3	13	MET477	0.000	
100	   N	3.988	16.945	113.032	N.am	14	GLY480	0.000	
101	  CA	3.040	15.961	113.522	C.3	14	GLY480	0.000	
102	   C	2.419	16.310	114.864	C.2	14	GLY480	0.000	
103	   O	2.423	17.457	115.323	O.2	14	GLY480	0.000	
104	   N	1.832	15.299	115.492	N.am	15	CYS481	0.000	
105	  CA	1.114	15.571	116.724	C.3	15	CYS481	0.000	
106	   C	2.073	15.902	117.865	C.2	15	CYS481	0.000	
107	   O	3.179	15.354	117.978	O.2	15	CYS481	0.000	
108	  CB	0.187	14.423	117.103	C.3	15	CYS481	0.000	
109	  SG	0.995	12.889	117.512	S.3	15	CYS481	0.000	
110	   N	1.886	15.202	120.999	N.am	16	LEU483	0.000	
111	  CA	2.169	14.098	121.911	C.3	16	LEU483	0.000	
112	   C	3.420	13.331	121.488	C.2	16	LEU483	0.000	
113	   O	4.339	13.094	122.293	O.2	16	LEU483	0.000	
114	  CB	0.953	13.170	121.955	C.3	16	LEU483	0.000	
115	  CG	1.123	11.946	122.855	C.3	16	LEU483	0.000	
116	 CD1	1.342	12.391	124.277	C.3	16	LEU483	0.000	
117	 CD2	-0.077	10.998	122.743	C.3	16	LEU483	0.000	
118	   N	3.481	12.932	120.218	N.am	17	ASN484	0.000	
119	  CA	4.621	12.139	119.771	C.3	17	ASN484	0.000	
120	   C	5.896	12.970	119.709	C.2	17	ASN484	0.000	
121	   O	6.990	12.446	119.953	O.2	17	ASN484	0.000	
122	  CB	4.320	11.476	118.430	C.3	17	ASN484	0.000	
123	  CG	3.279	10.390	118.553	C.2	17	ASN484	0.000	
124	 ND2	2.872	9.819	117.424	N.pl3	17	ASN484	0.000	
125	 OD1	2.851	10.056	119.656	O.2	17	ASN484	0.000	
126	   N	-2.477	15.033	122.061	N.am	18	ARG525	0.000	
127	  CA	-2.690	14.248	120.847	C.3	18	ARG525	0.000	
128	   C	-3.421	15.040	119.766	C.2	18	ARG525	0.000	
129	   O	-3.349	14.656	118.591	O.2	18	ARG525	0.000	
130	  CB	-3.472	12.970	121.185	C.3	18	ARG525	0.000	
131	  CG	-4.782	13.230	121.910	C.3	18	ARG525	0.000	
132	  CD	-5.448	11.940	122.371	C.3	18	ARG525	0.000	
133	  NE	-6.373	12.204	123.468	N.pl3	18	ARG525	0.000	
134	  CZ	-7.559	12.787	123.321	C.cat	18	ARG525	0.000	
135	 NH1	-8.332	12.999	124.377	N.pl3	18	ARG525	0.000	
136	 NH2	-7.975	13.149	122.117	N.pl3	18	ARG525	0.000	
137	   N	-0.762	20.089	117.012	N.am	19	LEU528	0.000	
138	  CA	0.159	19.758	115.929	C.3	19	LEU528	0.000	
139	   C	1.352	20.700	115.994	C.2	19	LEU528	0.000	
140	   O	1.280	21.773	116.590	O.2	19	LEU528	0.000	
141	  CB	-0.536	19.849	114.554	C.3	19	LEU528	0.000	
142	  CG	-1.607	18.799	114.249	C.3	19	LEU528	0.000	
143	 CD1	-2.418	19.171	113.029	C.3	19	LEU528	0.000	
144	 CD2	-0.970	17.443	114.034	C.3	19	LEU528	0.000	
145	   N	-5.663	21.870	117.018	N.am	20	SER538	0.000	
146	  CA	-6.259	21.171	115.891	C.3	20	SER538	0.000	
147	   C	-7.479	20.379	116.356	C.2	20	SER538	0.000	
148	   O	-7.748	20.253	117.553	O.2	20	SER538	0.000	
149	  CB	-5.211	20.268	115.239	C.3	20	SER538	0.000	
150	  OG	-5.726	19.638	114.082	O.3	20	SER538	0.000	
151	   N	-8.242	19.878	115.379	N.am	21	ASP539	0.000	
152	  CA	-9.446	19.070	115.627	C.3	21	ASP539	0.000	
153	   C	-10.466	19.775	116.520	C.2	21	ASP539	0.000	
154	   O	-11.280	19.125	117.193	O.2	21	ASP539	0.000	
155	  CB	-9.115	17.674	116.165	C.3	21	ASP539	0.000	
156	  CG	-8.622	16.733	115.091	C.2	21	ASP539	0.000	
157	 OD1	-8.558	17.137	113.910	O.co2	21	ASP539	0.000	
158	 OD2	-8.330	15.570	115.429	O.co2	21	ASP539	0.000	
159	   N	-10.468	21.105	116.512	N.am	22	PHE540	0.000	
160	  CA	-11.321	21.850	117.431	C.3	22	PHE540	0.000	
161	   C	-12.795	21.601	117.125	C.2	22	PHE540	0.000	
162	   O	-13.241	21.757	115.983	O.2	22	PHE540	0.000	
163	  CB	-10.983	23.347	117.415	C.3	22	PHE540	0.000	
164	  CG	-10.600	23.889	116.063	C.2	22	PHE540	0.000	
165	 CD1	-9.278	23.856	115.647	C.2	22	PHE540	0.000	
166	 CD2	-11.544	24.457	115.220	C.2	22	PHE540	0.000	
167	 CE1	-8.906	24.355	114.402	C.2	22	PHE540	0.000	
168	 CE2	-11.178	24.962	113.987	C.2	22	PHE540	0.000	
169	  CZ	-9.854	24.908	113.575	C.2	22	PHE540	0.000	
170	   N	-14.361	18.891	116.824	N.am	23	LEU542	0.000	
171	  CA	-14.642	17.740	115.976	C.3	23	LEU542	0.000	
172	   C	-15.318	16.582	116.669	C.2	23	LEU542	0.000	
173	   O	-16.005	15.825	116.021	O.2	23	LEU542	0.000	
174	  CB	-13.327	17.295	115.313	C.3	23	LEU542	0.000	
175	  CG	-13.356	16.499	114.042	C.3	23	LEU542	0.000	
176	 CD1	-14.073	17.240	112.921	C.3	23	LEU542	0.000	
177	 CD2	-11.934	16.139	113.684	C.3	23	LEU542	0.000	
@<TRIPOS>BOND
1 1 2 1
2 2 3 1
3 2 5 1
4 3 4 2
5 3 9 1
6 5 6 1
7 6 7 1
8 6 8 1
9 9 10 1
10 10 11 1
11 11 12 2
12 11 13 1
13 13 14 1
14 14 15 1
15 14 17 1
16 15 16 2
17 17 18 1
18 17 19 1
19 20 21 1
20 21 22 1
21 21 24 1
22 22 23 2
23 24 25 1
24 24 26 1
25 27 28 1
26 28 29 1
27 28 31 1
28 29 30 2
29 32 33 1
30 33 34 1
31 33 36 1
32 34 35 2
33 36 37 1
34 37 38 1
35 38 39 1
36 39 40 1
37 41 42 1
38 42 43 1
39 42 45 1
40 43 44 2
41 45 46 1
42 46 47 1
43 47 48 1
44 49 50 1
45 50 51 1
46 50 53 1
47 51 52 2
48 53 54 1
49 53 55 1
50 56 57 1
51 57 58 1
52 57 60 1
53 58 59 2
54 60 61 1
55 60 62 1
56 61 63 1
57 64 65 1
58 65 66 1
59 65 68 1
60 66 67 2
61 66 71 1
62 68 69 1
63 68 70 1
64 71 72 1
65 72 73 1
66 72 75 1
67 73 74 2
68 73 80 1
69 75 76 1
70 76 77 1
71 77 78 2
72 77 79 1
73 80 81 1
74 81 82 1
75 81 84 1
76 82 83 2
77 82 92 1
78 84 85 1
79 85 86 2
80 85 87 1
81 86 88 1
82 87 89 2
83 88 90 2
84 89 90 1
85 90 91 1
86 92 93 1
87 93 94 1
88 93 96 1
89 94 95 2
90 96 97 1
91 97 98 1
92 98 99 1
93 100 101 1
94 101 102 1
95 102 103 2
96 102 104 1
97 104 105 1
98 105 106 1
99 105 108 1
100 106 107 2
101 108 109 1
102 110 111 1
103 111 112 1
104 111 114 1
105 112 113 2
106 112 118 1
107 114 115 1
108 115 116 1
109 115 117 1
110 118 119 1
111 119 120 1
112 119 122 1
113 120 121 2
114 122 123 1
115 123 124 1
116 123 125 2
117 126 127 1
118 127 128 1
119 127 130 1
120 128 129 2
121 130 131 1
122 131 132 1
123 132 133 1
124 133 134 1
125 134 135 2
126 134 136 1
127 137 138 1
128 138 139 1
129 138 141 1
130 139 140 2
131 141 142 1
132 142 143 1
133 142 144 1
134 145 146 1
135 146 147 1
136 146 149 1
137 147 148 2
138 147 151 1
139 149 150 1
140 151 152 1
141 152 153 1
142 152 155 1
143 153 154 2
144 153 159 1
145 155 156 1
146 156 157 2
147 156 158 1
148 159 160 1
149 160 161 1
150 160 163 1
151 161 162 2
152 163 164 1
153 164 165 2
154 164 166 1
155 165 167 1
156 166 168 2
157 167 169 2
158 168 169 1
159 170 171 1
160 171 172 1
161 171 174 1
162 172 173 2
163 174 175 1
164 175 176 1
165 175 177 1
@<TRIPOS>SUBSTRUCTURE
1	LEU408	1	RESIDUE	1 B	LEU
2	GLY409	9	RESIDUE	1 B	GLY
3	THR410	13	RESIDUE	1 B	THR
4	VAL416	20	RESIDUE	1 B	VAL
5	ALA428	27	RESIDUE	1 B	ALA
6	LYS430	32	RESIDUE	1 B	LYS
7	MET449	41	RESIDUE	1 B	MET
8	VAL458	49	RESIDUE	1 B	VAL
9	ILE472	56	RESIDUE	1 B	ILE
10	THR474	64	RESIDUE	1 B	THR
11	GLU475	71	RESIDUE	1 B	GLU
12	TYR476	80	RESIDUE	1 B	TYR
13	MET477	92	RESIDUE	1 B	MET
14	GLY480	100	RESIDUE	1 B	GLY
15	CYS481	104	RESIDUE	1 B	CYS
16	LEU483	110	RESIDUE	1 B	LEU
17	ASN484	118	RESIDUE	1 B	ASN
18	ARG525	126	RESIDUE	1 B	ARG
19	LEU528	137	RESIDUE	1 B	LEU
20	SER538	145	RESIDUE	1 B	SER
21	ASP539	151	RESIDUE	1 B	ASP
22	PHE540	159	RESIDUE	1 B	PHE
23	LEU542	170	RESIDUE	1 B	LEU
