# created with PyMOL 2.5.2
@<TRIPOS>MOLECULE
BTK_6J6M_TargetProtein
170 159 22              
SMALL
USER_CHARGES
@<TRIPOS>ATOM
1	   N	0.563	10.394	106.028	N.am	1	LEU408	0.000	
2	  CA	0.907	10.980	107.320	C.3	1	LEU408	0.000	
3	   C	0.462	10.154	108.516	C.2	1	LEU408	0.000	
4	   O	0.847	10.478	109.644	O.2	1	LEU408	0.000	
5	  CB	0.318	12.389	107.462	C.3	1	LEU408	0.000	
6	  CG	0.836	13.422	106.469	C.3	1	LEU408	0.000	
7	 CD1	0.094	14.736	106.661	C.3	1	LEU408	0.000	
8	 CD2	2.336	13.606	106.627	C.3	1	LEU408	0.000	
9	   N	-0.339	9.126	108.318	N.am	2	GLY409	0.000	
10	  CA	-0.770	8.313	109.428	C.3	2	GLY409	0.000	
11	   C	-2.262	8.104	109.416	C.2	2	GLY409	0.000	
12	   O	-2.967	8.450	108.457	O.2	2	GLY409	0.000	
13	   N	-4.670	10.247	106.863	N.am	3	VAL416	0.000	
14	  CA	-4.291	11.633	106.625	C.3	3	VAL416	0.000	
15	   C	-3.107	11.632	105.668	C.2	3	VAL416	0.000	
16	   O	-2.198	10.805	105.797	O.2	3	VAL416	0.000	
17	  CB	-3.931	12.353	107.942	C.3	3	VAL416	0.000	
18	 CG1	-3.721	13.842	107.694	C.3	3	VAL416	0.000	
19	 CG2	-5.021	12.138	108.979	C.3	3	VAL416	0.000	
20	   N	-2.556	19.529	104.205	N.am	4	ALA428	0.000	
21	  CA	-2.887	18.215	104.725	C.3	4	ALA428	0.000	
22	   C	-4.318	17.889	104.324	C.2	4	ALA428	0.000	
23	   O	-5.176	18.776	104.215	O.2	4	ALA428	0.000	
24	  CB	-2.784	18.174	106.249	C.3	4	ALA428	0.000	
25	   N	-4.567	16.602	104.110	N.am	5	ILE429	0.000	
26	  CA	-5.852	16.092	103.651	C.3	5	ILE429	0.000	
27	   C	-6.261	14.990	104.622	C.2	5	ILE429	0.000	
28	   O	-5.637	13.923	104.642	O.2	5	ILE429	0.000	
29	  CB	-5.775	15.545	102.217	C.3	5	ILE429	0.000	
30	 CG1	-5.166	16.581	101.261	C.3	5	ILE429	0.000	
31	 CG2	-7.150	15.098	101.754	C.3	5	ILE429	0.000	
32	 CD1	-3.702	16.343	100.936	C.3	5	ILE429	0.000	
33	   N	-7.286	15.244	105.436	N.am	6	LYS430	0.000	
34	  CA	-7.834	14.233	106.338	C.3	6	LYS430	0.000	
35	   C	-9.050	13.610	105.661	C.2	6	LYS430	0.000	
36	   O	-10.014	14.316	105.338	O.2	6	LYS430	0.000	
37	  CB	-8.211	14.832	107.699	C.3	6	LYS430	0.000	
38	  CG	-8.924	13.845	108.644	C.3	6	LYS430	0.000	
39	  CD	-8.320	13.795	110.055	C.3	6	LYS430	0.000	
40	  CE	-8.803	14.934	110.939	C.3	6	LYS430	0.000	
41	  NZ	-8.131	14.917	112.283	N.4	6	LYS430	0.000	
42	   N	-16.223	27.019	110.932	N.am	7	MET449	0.000	
43	  CA	-14.802	26.818	111.198	C.3	7	MET449	0.000	
44	   C	-13.922	27.568	110.205	C.2	7	MET449	0.000	
45	   O	-12.819	28.000	110.561	O.2	7	MET449	0.000	
46	  CB	-14.485	25.327	111.205	C.3	7	MET449	0.000	
47	  CG	-15.220	24.564	112.302	C.3	7	MET449	0.000	
48	  SD	-15.222	22.800	111.981	S.3	7	MET449	0.000	
49	  CE	-13.508	22.373	112.247	C.3	7	MET449	0.000	
50	   N	-4.827	25.668	113.741	N.am	8	VAL458	0.000	
51	  CA	-4.689	25.050	112.421	C.3	8	VAL458	0.000	
52	   C	-5.787	25.562	111.496	C.2	8	VAL458	0.000	
53	   O	-6.980	25.491	111.822	O.2	8	VAL458	0.000	
54	  CB	-4.719	23.520	112.547	C.3	8	VAL458	0.000	
55	 CG1	-4.840	22.861	111.175	C.3	8	VAL458	0.000	
56	 CG2	-3.485	23.019	113.286	C.3	8	VAL458	0.000	
57	   N	-11.112	16.843	104.491	N.am	9	ILE472	0.000	
58	  CA	-10.879	18.108	105.179	C.3	9	ILE472	0.000	
59	   C	-9.482	18.569	104.787	C.2	9	ILE472	0.000	
60	   O	-8.504	17.837	104.987	O.2	9	ILE472	0.000	
61	  CB	-10.968	17.947	106.703	C.3	9	ILE472	0.000	
62	 CG1	-12.243	17.219	107.115	C.3	9	ILE472	0.000	
63	 CG2	-10.888	19.302	107.386	C.3	9	ILE472	0.000	
64	 CD1	-12.309	16.986	108.616	C.3	9	ILE472	0.000	
65	   N	-6.454	21.288	105.142	N.am	10	THR474	0.000	
66	  CA	-5.965	22.192	106.172	C.3	10	THR474	0.000	
67	   C	-4.510	22.558	105.931	C.2	10	THR474	0.000	
68	   O	-3.801	21.974	105.101	O.2	10	THR474	0.000	
69	  CB	-6.074	21.590	107.585	C.3	10	THR474	0.000	
70	 CG2	-7.431	20.935	107.789	C.3	10	THR474	0.000	
71	 OG1	-5.052	20.606	107.770	O.3	10	THR474	0.000	
72	   N	-4.078	23.542	106.711	N.am	11	GLU475	0.000	
73	  CA	-2.673	23.866	106.869	C.3	11	GLU475	0.000	
74	   C	-1.874	22.611	107.219	C.2	11	GLU475	0.000	
75	   O	-2.345	21.741	107.957	O.2	11	GLU475	0.000	
76	  CB	-2.618	24.886	108.010	C.3	11	GLU475	0.000	
77	  CG	-1.275	25.205	108.573	C.3	11	GLU475	0.000	
78	  CD	-1.348	26.318	109.594	C.2	11	GLU475	0.000	
79	 OE1	-0.283	26.875	109.884	O.co2	11	GLU475	0.000	
80	 OE2	-2.452	26.635	110.107	O.co2	11	GLU475	0.000	
81	   N	-0.661	22.522	106.678	N.am	12	TYR476	0.000	
82	  CA	0.199	21.357	106.866	C.3	12	TYR476	0.000	
83	   C	1.169	21.576	108.023	C.2	12	TYR476	0.000	
84	   O	1.881	22.583	108.064	O.2	12	TYR476	0.000	
85	  CB	0.985	21.080	105.586	C.3	12	TYR476	0.000	
86	  CG	2.010	19.972	105.700	C.2	12	TYR476	0.000	
87	 CD1	1.660	18.715	106.191	C.2	12	TYR476	0.000	
88	 CD2	3.320	20.176	105.302	C.2	12	TYR476	0.000	
89	 CE1	2.594	17.706	106.293	C.2	12	TYR476	0.000	
90	 CE2	4.262	19.169	105.395	C.2	12	TYR476	0.000	
91	  CZ	3.893	17.936	105.885	C.2	12	TYR476	0.000	
92	  OH	4.818	16.921	105.970	O.3	12	TYR476	0.000	
93	   N	1.204	20.624	108.954	N.am	13	MET477	0.000	
94	  CA	2.016	20.704	110.170	C.3	13	MET477	0.000	
95	   C	3.028	19.559	110.112	C.2	13	MET477	0.000	
96	   O	2.720	18.420	110.481	O.2	13	MET477	0.000	
97	  CB	1.096	20.611	111.382	C.3	13	MET477	0.000	
98	  CG	0.008	21.677	111.394	C.3	13	MET477	0.000	
99	  SD	0.634	23.347	111.669	S.3	13	MET477	0.000	
100	  CE	1.082	23.224	113.396	C.3	13	MET477	0.000	
101	   N	3.988	16.945	113.032	N.am	14	GLY480	0.000	
102	  CA	3.040	15.961	113.522	C.3	14	GLY480	0.000	
103	   C	2.419	16.310	114.864	C.2	14	GLY480	0.000	
104	   O	2.423	17.457	115.323	O.2	14	GLY480	0.000	
105	   N	1.832	15.299	115.492	N.am	15	CYS481	0.000	
106	  CA	1.114	15.571	116.724	C.3	15	CYS481	0.000	
107	   C	2.073	15.902	117.865	C.2	15	CYS481	0.000	
108	   O	3.179	15.354	117.978	O.2	15	CYS481	0.000	
109	  CB	0.187	14.423	117.103	C.3	15	CYS481	0.000	
110	  SG	0.995	12.889	117.512	S.3	15	CYS481	0.000	
111	   N	3.481	12.932	120.218	N.am	16	ASN484	0.000	
112	  CA	4.621	12.139	119.771	C.3	16	ASN484	0.000	
113	   C	5.896	12.970	119.709	C.2	16	ASN484	0.000	
114	   O	6.990	12.446	119.953	O.2	16	ASN484	0.000	
115	  CB	4.320	11.476	118.430	C.3	16	ASN484	0.000	
116	  CG	3.279	10.390	118.553	C.2	16	ASN484	0.000	
117	 ND2	2.872	9.819	117.424	N.pl3	16	ASN484	0.000	
118	 OD1	2.851	10.056	119.656	O.2	16	ASN484	0.000	
119	   N	-2.477	15.033	122.061	N.am	17	ARG525	0.000	
120	  CA	-2.690	14.248	120.847	C.3	17	ARG525	0.000	
121	   C	-3.421	15.040	119.766	C.2	17	ARG525	0.000	
122	   O	-3.349	14.656	118.591	O.2	17	ARG525	0.000	
123	  CB	-3.472	12.970	121.185	C.3	17	ARG525	0.000	
124	  CG	-4.782	13.230	121.910	C.3	17	ARG525	0.000	
125	  CD	-5.448	11.940	122.371	C.3	17	ARG525	0.000	
126	  NE	-6.373	12.204	123.468	N.pl3	17	ARG525	0.000	
127	  CZ	-7.559	12.787	123.321	C.cat	17	ARG525	0.000	
128	 NH1	-8.332	12.999	124.377	N.pl3	17	ARG525	0.000	
129	 NH2	-7.975	13.149	122.117	N.pl3	17	ARG525	0.000	
130	   N	-0.762	20.089	117.012	N.am	18	LEU528	0.000	
131	  CA	0.159	19.758	115.929	C.3	18	LEU528	0.000	
132	   C	1.352	20.700	115.994	C.2	18	LEU528	0.000	
133	   O	1.280	21.773	116.590	O.2	18	LEU528	0.000	
134	  CB	-0.536	19.849	114.554	C.3	18	LEU528	0.000	
135	  CG	-1.607	18.799	114.249	C.3	18	LEU528	0.000	
136	 CD1	-2.418	19.171	113.029	C.3	18	LEU528	0.000	
137	 CD2	-0.970	17.443	114.034	C.3	18	LEU528	0.000	
138	   N	-5.663	21.870	117.018	N.am	19	SER538	0.000	
139	  CA	-6.259	21.171	115.891	C.3	19	SER538	0.000	
140	   C	-7.479	20.379	116.356	C.2	19	SER538	0.000	
141	   O	-7.748	20.253	117.553	O.2	19	SER538	0.000	
142	  CB	-5.211	20.268	115.239	C.3	19	SER538	0.000	
143	  OG	-5.726	19.638	114.082	O.3	19	SER538	0.000	
144	   N	-8.242	19.878	115.379	N.am	20	ASP539	0.000	
145	  CA	-9.446	19.070	115.627	C.3	20	ASP539	0.000	
146	   C	-10.466	19.775	116.520	C.2	20	ASP539	0.000	
147	   O	-11.280	19.125	117.193	O.2	20	ASP539	0.000	
148	  CB	-9.115	17.674	116.165	C.3	20	ASP539	0.000	
149	  CG	-8.622	16.733	115.091	C.2	20	ASP539	0.000	
150	 OD1	-8.558	17.137	113.910	O.co2	20	ASP539	0.000	
151	 OD2	-8.330	15.570	115.429	O.co2	20	ASP539	0.000	
152	   N	-10.468	21.105	116.512	N.am	21	PHE540	0.000	
153	  CA	-11.321	21.850	117.431	C.3	21	PHE540	0.000	
154	   C	-12.795	21.601	117.125	C.2	21	PHE540	0.000	
155	   O	-13.241	21.757	115.983	O.2	21	PHE540	0.000	
156	  CB	-10.983	23.347	117.415	C.3	21	PHE540	0.000	
157	  CG	-10.600	23.889	116.063	C.2	21	PHE540	0.000	
158	 CD1	-9.278	23.856	115.647	C.2	21	PHE540	0.000	
159	 CD2	-11.544	24.457	115.220	C.2	21	PHE540	0.000	
160	 CE1	-8.906	24.355	114.402	C.2	21	PHE540	0.000	
161	 CE2	-11.178	24.962	113.987	C.2	21	PHE540	0.000	
162	  CZ	-9.854	24.908	113.575	C.2	21	PHE540	0.000	
163	   N	-14.361	18.891	116.824	N.am	22	LEU542	0.000	
164	  CA	-14.642	17.740	115.976	C.3	22	LEU542	0.000	
165	   C	-15.318	16.582	116.669	C.2	22	LEU542	0.000	
166	   O	-16.005	15.825	116.021	O.2	22	LEU542	0.000	
167	  CB	-13.327	17.295	115.313	C.3	22	LEU542	0.000	
168	  CG	-13.356	16.499	114.042	C.3	22	LEU542	0.000	
169	 CD1	-14.073	17.240	112.921	C.3	22	LEU542	0.000	
170	 CD2	-11.934	16.139	113.684	C.3	22	LEU542	0.000	
@<TRIPOS>BOND
1 1 2 1
2 2 3 1
3 2 5 1
4 3 4 2
5 3 9 1
6 5 6 1
7 6 7 1
8 6 8 1
9 9 10 1
10 10 11 1
11 11 12 2
12 13 14 1
13 14 15 1
14 14 17 1
15 15 16 2
16 17 18 1
17 17 19 1
18 20 21 1
19 21 22 1
20 21 24 1
21 22 23 2
22 22 25 1
23 25 26 1
24 26 27 1
25 26 29 1
26 27 28 2
27 27 33 1
28 29 30 1
29 29 31 1
30 30 32 1
31 33 34 1
32 34 35 1
33 34 37 1
34 35 36 2
35 37 38 1
36 38 39 1
37 39 40 1
38 40 41 1
39 42 43 1
40 43 44 1
41 43 46 1
42 44 45 2
43 46 47 1
44 47 48 1
45 48 49 1
46 50 51 1
47 51 52 1
48 51 54 1
49 52 53 2
50 54 55 1
51 54 56 1
52 57 58 1
53 58 59 1
54 58 61 1
55 59 60 2
56 61 62 1
57 61 63 1
58 62 64 1
59 65 66 1
60 66 67 1
61 66 69 1
62 67 68 2
63 67 72 1
64 69 70 1
65 69 71 1
66 72 73 1
67 73 74 1
68 73 76 1
69 74 75 2
70 74 81 1
71 76 77 1
72 77 78 1
73 78 79 2
74 78 80 1
75 81 82 1
76 82 83 1
77 82 85 1
78 83 84 2
79 83 93 1
80 85 86 1
81 86 87 2
82 86 88 1
83 87 89 1
84 88 90 2
85 89 91 2
86 90 91 1
87 91 92 1
88 93 94 1
89 94 95 1
90 94 97 1
91 95 96 2
92 97 98 1
93 98 99 1
94 99 100 1
95 101 102 1
96 102 103 1
97 103 104 2
98 103 105 1
99 105 106 1
100 106 107 1
101 106 109 1
102 107 108 2
103 109 110 1
104 111 112 1
105 112 113 1
106 112 115 1
107 113 114 2
108 115 116 1
109 116 117 1
110 116 118 2
111 119 120 1
112 120 121 1
113 120 123 1
114 121 122 2
115 123 124 1
116 124 125 1
117 125 126 1
118 126 127 1
119 127 128 2
120 127 129 1
121 130 131 1
122 131 132 1
123 131 134 1
124 132 133 2
125 134 135 1
126 135 136 1
127 135 137 1
128 138 139 1
129 139 140 1
130 139 142 1
131 140 141 2
132 140 144 1
133 142 143 1
134 144 145 1
135 145 146 1
136 145 148 1
137 146 147 2
138 146 152 1
139 148 149 1
140 149 150 2
141 149 151 1
142 152 153 1
143 153 154 1
144 153 156 1
145 154 155 2
146 156 157 1
147 157 158 2
148 157 159 1
149 158 160 1
150 159 161 2
151 160 162 2
152 161 162 1
153 163 164 1
154 164 165 1
155 164 167 1
156 165 166 2
157 167 168 1
158 168 169 1
159 168 170 1
@<TRIPOS>SUBSTRUCTURE
1	LEU408	1	RESIDUE	1 B	LEU
2	GLY409	9	RESIDUE	1 B	GLY
3	VAL416	13	RESIDUE	1 B	VAL
4	ALA428	20	RESIDUE	1 B	ALA
5	ILE429	25	RESIDUE	1 B	ILE
6	LYS430	33	RESIDUE	1 B	LYS
7	MET449	42	RESIDUE	1 B	MET
8	VAL458	50	RESIDUE	1 B	VAL
9	ILE472	57	RESIDUE	1 B	ILE
10	THR474	65	RESIDUE	1 B	THR
11	GLU475	72	RESIDUE	1 B	GLU
12	TYR476	81	RESIDUE	1 B	TYR
13	MET477	93	RESIDUE	1 B	MET
14	GLY480	101	RESIDUE	1 B	GLY
15	CYS481	105	RESIDUE	1 B	CYS
16	ASN484	111	RESIDUE	1 B	ASN
17	ARG525	119	RESIDUE	1 B	ARG
18	LEU528	130	RESIDUE	1 B	LEU
19	SER538	138	RESIDUE	1 B	SER
20	ASP539	144	RESIDUE	1 B	ASP
21	PHE540	152	RESIDUE	1 B	PHE
22	LEU542	163	RESIDUE	1 B	LEU
