# created with PyMOL 2.5.2
@<TRIPOS>MOLECULE
BTK_5P9J_TargetProtein
158 147 21              
SMALL
USER_CHARGES
@<TRIPOS>ATOM
1	   N	25.822	1.648	-0.593	N.am	1	LEU408	0.000	
2	  CA	25.269	2.919	-1.008	C.3	1	LEU408	0.000	
3	   C	26.150	4.047	-0.573	C.2	1	LEU408	0.000	
4	   O	26.006	5.141	-1.093	O.2	1	LEU408	0.000	
5	  CB	23.875	3.108	-0.483	C.3	1	LEU408	0.000	
6	  CG	22.851	2.144	-1.004	C.3	1	LEU408	0.000	
7	 CD1	21.485	2.333	-0.406	C.3	1	LEU408	0.000	
8	 CD2	22.821	2.172	-2.492	C.3	1	LEU408	0.000	
9	   N	27.053	3.852	0.343	N.am	2	GLY409	0.000	
10	  CA	27.843	4.986	0.848	C.3	2	GLY409	0.000	
11	   C	27.854	4.996	2.343	C.2	2	GLY409	0.000	
12	   O	27.162	4.223	2.970	O.2	2	GLY409	0.000	
13	   N	28.617	5.931	2.904	N.am	3	THR410	0.000	
14	  CA	28.930	5.967	4.351	C.3	3	THR410	0.000	
15	   C	28.780	7.375	4.903	C.2	3	THR410	0.000	
16	   O	29.399	8.312	4.376	O.2	3	THR410	0.000	
17	  CB	30.380	5.523	4.639	C.3	3	THR410	0.000	
18	 CG2	30.629	5.264	6.126	C.3	3	THR410	0.000	
19	 OG1	30.473	4.233	4.042	O.3	3	THR410	0.000	
20	   N	25.631	2.448	4.637	N.am	4	VAL416	0.000	
21	  CA	24.253	2.157	4.276	C.3	4	VAL416	0.000	
22	   C	24.322	1.233	3.086	C.2	4	VAL416	0.000	
23	   O	25.101	1.448	2.142	O.2	4	VAL416	0.000	
24	  CB	23.469	3.426	3.843	C.3	4	VAL416	0.000	
25	 CG1	22.024	3.059	3.490	C.3	4	VAL416	0.000	
26	 CG2	23.484	4.444	4.965	C.3	4	VAL416	0.000	
27	   N	16.606	-0.163	2.364	N.am	5	ALA428	0.000	
28	  CA	17.902	0.318	2.773	C.3	5	ALA428	0.000	
29	   C	18.251	-0.098	4.194	C.2	5	ALA428	0.000	
30	   O	17.367	-0.115	5.040	O.2	5	ALA428	0.000	
31	  CB	18.015	1.839	2.610	C.3	5	ALA428	0.000	
32	   N	20.792	0.881	7.200	N.am	6	LYS430	0.000	
33	  CA	21.770	1.818	7.765	C.3	6	LYS430	0.000	
34	   C	22.392	1.106	8.993	C.2	6	LYS430	0.000	
35	   O	21.645	0.736	9.896	O.2	6	LYS430	0.000	
36	  CB	21.095	3.140	8.133	C.3	6	LYS430	0.000	
37	  CG	21.995	4.221	8.792	C.3	6	LYS430	0.000	
38	  CD	21.214	5.536	8.940	C.3	6	LYS430	0.000	
39	  CE	22.084	6.787	8.937	C.3	6	LYS430	0.000	
40	  NZ	21.396	7.946	8.257	N.4	6	LYS430	0.000	
41	   N	8.870	6.562	16.030	N.am	7	MET449	0.000	
42	  CA	9.180	6.860	14.598	C.3	7	MET449	0.000	
43	   C	8.458	5.873	13.709	C.2	7	MET449	0.000	
44	   O	8.052	6.224	12.609	O.2	7	MET449	0.000	
45	  CB	10.665	6.926	14.300	C.3	7	MET449	0.000	
46	  CG	11.393	7.997	15.067	C.3	7	MET449	0.000	
47	  SD	13.110	7.747	15.097	S.3	7	MET449	0.000	
48	  CE	13.599	8.174	13.437	C.3	7	MET449	0.000	
49	   N	10.373	9.427	4.549	N.am	8	VAL458	0.000	
50	  CA	11.019	8.082	4.401	C.3	8	VAL458	0.000	
51	   C	10.495	7.171	5.598	C.2	8	VAL458	0.000	
52	   O	10.554	7.500	6.752	O.2	8	VAL458	0.000	
53	  CB	12.528	8.201	4.445	C.3	8	VAL458	0.000	
54	 CG1	13.206	6.830	4.542	C.3	8	VAL458	0.000	
55	 CG2	13.026	9.044	3.257	C.3	8	VAL458	0.000	
56	   N	19.211	0.098	11.047	N.am	9	ILE472	0.000	
57	  CA	17.922	0.776	10.776	C.3	9	ILE472	0.000	
58	   C	17.432	0.407	9.380	C.2	9	ILE472	0.000	
59	   O	18.173	0.613	8.414	O.2	9	ILE472	0.000	
60	  CB	18.015	2.344	10.906	C.3	9	ILE472	0.000	
61	 CG1	18.706	2.764	12.213	C.3	9	ILE472	0.000	
62	 CG2	16.607	2.891	10.790	C.3	9	ILE472	0.000	
63	 CD1	18.935	4.252	12.311	C.3	9	ILE472	0.000	
64	   N	14.870	0.807	6.285	N.am	10	THR474	0.000	
65	  CA	13.982	1.883	5.729	C.3	10	THR474	0.000	
66	   C	13.630	1.586	4.356	C.2	10	THR474	0.000	
67	   O	14.188	0.751	3.593	O.2	10	THR474	0.000	
68	  CB	14.584	3.332	5.883	C.3	10	THR474	0.000	
69	 CG2	15.163	3.536	7.206	C.3	10	THR474	0.000	
70	 OG1	15.518	3.499	4.837	O.3	10	THR474	0.000	
71	   N	12.681	2.403	3.884	N.am	11	GLU475	0.000	
72	  CA	12.377	2.569	2.496	C.3	11	GLU475	0.000	
73	   C	13.670	2.868	1.711	C.2	11	GLU475	0.000	
74	   O	14.529	3.641	2.136	O.2	11	GLU475	0.000	
75	  CB	11.453	3.833	2.434	C.3	11	GLU475	0.000	
76	  CG	10.991	4.283	1.101	C.3	11	GLU475	0.000	
77	  CD	9.870	5.311	1.189	C.2	11	GLU475	0.000	
78	 OE1	9.487	5.790	2.284	O.co2	11	GLU475	0.000	
79	 OE2	9.382	5.474	0.109	O.co2	11	GLU475	0.000	
80	   N	13.782	2.263	0.557	N.am	12	TYR476	0.000	
81	  CA	14.916	2.457	-0.378	C.3	12	TYR476	0.000	
82	   C	14.596	3.614	-1.368	C.2	12	TYR476	0.000	
83	   O	13.537	3.605	-1.978	O.2	12	TYR476	0.000	
84	  CB	15.190	1.196	-1.154	C.3	12	TYR476	0.000	
85	  CG	16.235	1.317	-2.207	C.2	12	TYR476	0.000	
86	 CD1	17.520	1.808	-1.928	C.2	12	TYR476	0.000	
87	 CD2	15.978	1.030	-3.521	C.2	12	TYR476	0.000	
88	 CE1	18.477	1.906	-2.912	C.2	12	TYR476	0.000	
89	 CE2	16.923	1.175	-4.512	C.2	12	TYR476	0.000	
90	  CZ	18.199	1.575	-4.199	C.2	12	TYR476	0.000	
91	  OH	19.196	1.746	-5.171	O.3	12	TYR476	0.000	
92	   N	15.532	4.537	-1.431	N.am	13	MET477	0.000	
93	  CA	15.373	5.775	-2.242	C.3	13	MET477	0.000	
94	   C	16.411	5.791	-3.323	C.2	13	MET477	0.000	
95	   O	17.556	6.135	-3.101	O.2	13	MET477	0.000	
96	  CB	15.482	6.945	-1.286	C.3	13	MET477	0.000	
97	  CG	14.394	6.978	-0.247	C.3	13	MET477	0.000	
98	  SD	12.733	7.234	-0.759	S.3	13	MET477	0.000	
99	  CE	12.778	9.000	-1.159	C.3	13	MET477	0.000	
100	   N	18.952	8.534	-4.236	N.am	14	GLY480	0.000	
101	  CA	19.927	9.007	-3.256	C.3	14	GLY480	0.000	
102	   C	19.641	10.398	-2.696	C.2	14	GLY480	0.000	
103	   O	18.497	10.836	-2.676	O.2	14	GLY480	0.000	
104	   N	20.645	10.931	-2.080	N.am	15	CYS481	0.000	
105	  CA	20.491	12.187	-1.346	C.3	15	CYS481	0.000	
106	   C	20.155	13.393	-2.283	C.2	15	CYS481	0.000	
107	   O	20.708	13.484	-3.378	O.2	15	CYS481	0.000	
108	  CB	21.738	12.531	-0.604	C.3	15	CYS481	0.000	
109	  SG	23.184	12.843	-1.467	S.3	15	CYS481	0.000	
110	   N	23.155	15.750	-3.726	N.am	16	ASN484	0.000	
111	  CA	23.901	15.296	-4.858	C.3	16	ASN484	0.000	
112	   C	23.060	15.262	-6.128	C.2	16	ASN484	0.000	
113	   O	23.557	15.584	-7.240	O.2	16	ASN484	0.000	
114	  CB	24.486	13.911	-4.675	C.3	16	ASN484	0.000	
115	  CG	25.697	13.902	-3.818	C.2	16	ASN484	0.000	
116	 ND2	26.292	12.740	-3.706	N.pl3	16	ASN484	0.000	
117	 OD1	26.048	14.860	-3.187	O.2	16	ASN484	0.000	
118	   N	15.997	12.589	0.672	N.am	17	LEU528	0.000	
119	  CA	16.262	11.539	-0.306	C.3	17	LEU528	0.000	
120	   C	15.342	11.642	-1.451	C.2	17	LEU528	0.000	
121	   O	14.247	12.164	-1.350	O.2	17	LEU528	0.000	
122	  CB	16.209	10.170	0.406	C.3	17	LEU528	0.000	
123	  CG	17.233	9.864	1.515	C.3	17	LEU528	0.000	
124	 CD1	16.890	8.656	2.357	C.3	17	LEU528	0.000	
125	 CD2	18.569	9.667	0.893	C.3	17	LEU528	0.000	
126	   N	14.149	12.683	5.544	N.am	18	SER538	0.000	
127	  CA	14.851	11.595	6.229	C.3	18	SER538	0.000	
128	   C	15.629	12.079	7.425	C.2	18	SER538	0.000	
129	   O	15.800	13.260	7.628	O.2	18	SER538	0.000	
130	  CB	15.753	10.959	5.170	C.3	18	SER538	0.000	
131	  OG	16.278	9.748	5.651	O.3	18	SER538	0.000	
132	   N	16.093	11.125	8.208	N.am	19	ASP539	0.000	
133	  CA	16.931	11.349	9.404	C.3	19	ASP539	0.000	
134	   C	16.252	12.276	10.408	C.2	19	ASP539	0.000	
135	   O	16.906	12.912	11.261	O.2	19	ASP539	0.000	
136	  CB	18.317	11.856	9.035	C.3	19	ASP539	0.000	
137	  CG	19.262	10.751	8.502	C.2	19	ASP539	0.000	
138	 OD1	18.988	9.560	8.638	O.co2	19	ASP539	0.000	
139	 OD2	20.316	11.162	8.025	O.co2	19	ASP539	0.000	
140	   N	14.930	12.250	10.418	N.am	20	PHE540	0.000	
141	  CA	14.160	13.182	11.229	C.3	20	PHE540	0.000	
142	   C	14.394	12.846	12.702	C.2	20	PHE540	0.000	
143	   O	14.220	11.696	13.169	O.2	20	PHE540	0.000	
144	  CB	12.687	13.162	10.889	C.3	20	PHE540	0.000	
145	  CG	12.126	11.845	10.454	C.2	20	PHE540	0.000	
146	 CD1	12.152	11.459	9.134	C.2	20	PHE540	0.000	
147	 CD2	11.508	11.002	11.341	C.2	20	PHE540	0.000	
148	 CE1	11.646	10.256	8.743	C.2	20	PHE540	0.000	
149	 CE2	10.960	9.833	10.917	C.2	20	PHE540	0.000	
150	  CZ	11.040	9.437	9.609	C.2	20	PHE540	0.000	
151	   N	17.074	12.495	14.346	N.am	21	LEU542	0.000	
152	  CA	18.189	11.631	14.687	C.3	21	LEU542	0.000	
153	   C	19.377	12.294	15.339	C.2	21	LEU542	0.000	
154	   O	20.136	11.631	16.093	O.2	21	LEU542	0.000	
155	  CB	18.604	10.786	13.428	C.3	21	LEU542	0.000	
156	  CG	19.255	9.424	13.498	C.3	21	LEU542	0.000	
157	 CD1	18.242	8.577	14.243	C.3	21	LEU542	0.000	
158	 CD2	19.441	8.995	12.053	C.3	21	LEU542	0.000	
@<TRIPOS>BOND
1 1 2 1
2 2 3 1
3 2 5 1
4 3 4 2
5 3 9 1
6 5 6 1
7 6 7 1
8 6 8 1
9 9 10 1
10 10 11 1
11 11 12 2
12 11 13 1
13 13 14 1
14 14 15 1
15 14 17 1
16 15 16 2
17 17 18 1
18 17 19 1
19 20 21 1
20 21 22 1
21 21 24 1
22 22 23 2
23 24 25 1
24 24 26 1
25 27 28 1
26 28 29 1
27 28 31 1
28 29 30 2
29 32 33 1
30 33 34 1
31 33 36 1
32 34 35 2
33 36 37 1
34 37 38 1
35 38 39 1
36 39 40 1
37 41 42 1
38 42 43 1
39 42 45 1
40 43 44 2
41 45 46 1
42 46 47 1
43 47 48 1
44 49 50 1
45 50 51 1
46 50 53 1
47 51 52 2
48 53 54 1
49 53 55 1
50 56 57 1
51 57 58 1
52 57 60 1
53 58 59 2
54 60 61 1
55 60 62 1
56 61 63 1
57 64 65 1
58 65 66 1
59 65 68 1
60 66 67 2
61 66 71 1
62 68 69 1
63 68 70 1
64 71 72 1
65 72 73 1
66 72 75 1
67 73 74 2
68 73 80 1
69 75 76 1
70 76 77 1
71 77 78 2
72 77 79 1
73 80 81 1
74 81 82 1
75 81 84 1
76 82 83 2
77 82 92 1
78 84 85 1
79 85 86 2
80 85 87 1
81 86 88 1
82 87 89 2
83 88 90 2
84 89 90 1
85 90 91 1
86 92 93 1
87 93 94 1
88 93 96 1
89 94 95 2
90 96 97 1
91 97 98 1
92 98 99 1
93 100 101 1
94 101 102 1
95 102 103 2
96 102 104 1
97 104 105 1
98 105 106 1
99 105 108 1
100 106 107 2
101 108 109 1
102 110 111 1
103 111 112 1
104 111 114 1
105 112 113 2
106 114 115 1
107 115 116 1
108 115 117 2
109 118 119 1
110 119 120 1
111 119 122 1
112 120 121 2
113 122 123 1
114 123 124 1
115 123 125 1
116 126 127 1
117 127 128 1
118 127 130 1
119 128 129 2
120 128 132 1
121 130 131 1
122 132 133 1
123 133 134 1
124 133 136 1
125 134 135 2
126 134 140 1
127 136 137 1
128 137 138 2
129 137 139 1
130 140 141 1
131 141 142 1
132 141 144 1
133 142 143 2
134 144 145 1
135 145 146 2
136 145 147 1
137 146 148 1
138 147 149 2
139 148 150 2
140 149 150 1
141 151 152 1
142 152 153 1
143 152 155 1
144 153 154 2
145 155 156 1
146 156 157 1
147 156 158 1
@<TRIPOS>SUBSTRUCTURE
1	LEU408	1	RESIDUE	1 B	LEU
2	GLY409	9	RESIDUE	1 B	GLY
3	THR410	13	RESIDUE	1 B	THR
4	VAL416	20	RESIDUE	1 B	VAL
5	ALA428	27	RESIDUE	1 B	ALA
6	LYS430	32	RESIDUE	1 B	LYS
7	MET449	41	RESIDUE	1 B	MET
8	VAL458	49	RESIDUE	1 B	VAL
9	ILE472	56	RESIDUE	1 B	ILE
10	THR474	64	RESIDUE	1 B	THR
11	GLU475	71	RESIDUE	1 B	GLU
12	TYR476	80	RESIDUE	1 B	TYR
13	MET477	92	RESIDUE	1 B	MET
14	GLY480	100	RESIDUE	1 B	GLY
15	CYS481	104	RESIDUE	1 B	CYS
16	ASN484	110	RESIDUE	1 B	ASN
17	LEU528	118	RESIDUE	1 B	LEU
18	SER538	126	RESIDUE	1 B	SER
19	ASP539	132	RESIDUE	1 B	ASP
20	PHE540	140	RESIDUE	1 B	PHE
21	LEU542	151	RESIDUE	1 B	LEU
