# created with PyMOL 2.5.2
@<TRIPOS>MOLECULE
CDK6_2EUF_TargetProtein
163 155 20              
SMALL
USER_CHARGES
@<TRIPOS>ATOM
1	   N	33.743	16.971	58.331	N.am	1	ILE19	0.000	
2	  CA	32.429	17.532	58.669	C.3	1	ILE19	0.000	
3	   C	31.885	18.568	57.661	C.2	1	ILE19	0.000	
4	   O	31.241	19.548	58.061	O.2	1	ILE19	0.000	
5	  CB	32.424	18.110	60.112	C.3	1	ILE19	0.000	
6	 CG1	33.708	18.894	60.384	C.3	1	ILE19	0.000	
7	 CG2	32.265	16.997	61.129	C.3	1	ILE19	0.000	
8	 CD1	33.575	19.926	61.471	C.3	1	ILE19	0.000	
9	   N	36.024	21.125	55.226	N.am	2	VAL27	0.000	
10	  CA	36.254	21.338	56.663	C.3	2	VAL27	0.000	
11	   C	36.335	19.984	57.397	C.2	2	VAL27	0.000	
12	   O	35.405	19.174	57.321	O.2	2	VAL27	0.000	
13	  CB	35.143	22.235	57.297	C.3	2	VAL27	0.000	
14	 CG1	35.359	22.409	58.796	C.3	2	VAL27	0.000	
15	 CG2	35.073	23.589	56.612	C.3	2	VAL27	0.000	
16	   N	38.167	22.709	64.632	N.am	3	ALA41	0.000	
17	  CA	37.568	22.685	63.285	C.3	3	ALA41	0.000	
18	   C	38.535	23.247	62.233	C.2	3	ALA41	0.000	
19	   O	38.865	24.436	62.259	O.2	3	ALA41	0.000	
20	  CB	36.237	23.450	63.267	C.3	3	ALA41	0.000	
21	   N	39.501	24.233	58.414	N.am	4	LYS43	0.000	
22	  CA	39.109	24.600	57.048	C.3	4	LYS43	0.000	
23	   C	40.347	24.621	56.155	C.2	4	LYS43	0.000	
24	   O	41.264	25.417	56.365	O.2	4	LYS43	0.000	
25	  CB	38.411	25.972	57.039	C.3	4	LYS43	0.000	
26	  CG	37.643	26.321	55.768	C.3	4	LYS43	0.000	
27	  CD	36.578	27.382	56.075	C.3	4	LYS43	0.000	
28	  CE	35.893	27.924	54.802	C.3	4	LYS43	0.000	
29	  NZ	34.819	28.953	55.074	N.4	4	LYS43	0.000	
30	   N	35.880	36.815	55.351	N.am	5	GLU61	0.000	
31	  CA	35.313	35.992	56.419	C.3	5	GLU61	0.000	
32	   C	36.130	36.000	57.717	C.2	5	GLU61	0.000	
33	   O	35.563	36.061	58.816	O.2	5	GLU61	0.000	
34	  CB	35.142	34.557	55.906	C.3	5	GLU61	0.000	
35	  CG	34.813	33.515	56.954	C.3	5	GLU61	0.000	
36	  CD	35.059	32.093	56.463	C.2	5	GLU61	0.000	
37	 OE1	35.900	31.912	55.546	O.co2	5	GLU61	0.000	
38	 OE2	34.415	31.146	57.004	O.co2	5	GLU61	0.000	
39	   N	30.279	31.357	65.875	N.am	6	VAL77	0.000	
40	  CA	31.427	30.476	65.882	C.3	6	VAL77	0.000	
41	   C	32.691	31.290	66.218	C.2	6	VAL77	0.000	
42	   O	32.684	32.515	66.083	O.2	6	VAL77	0.000	
43	  CB	31.506	29.662	64.560	C.3	6	VAL77	0.000	
44	 CG1	32.025	30.495	63.419	C.3	6	VAL77	0.000	
45	 CG2	32.338	28.425	64.749	C.3	6	VAL77	0.000	
46	   N	39.013	26.643	63.772	N.am	7	PHE98	0.000	
47	  CA	37.886	27.163	64.539	C.3	7	PHE98	0.000	
48	   C	37.537	26.244	65.690	C.2	7	PHE98	0.000	
49	   O	38.033	25.116	65.776	O.2	7	PHE98	0.000	
50	  CB	36.642	27.255	63.657	C.3	7	PHE98	0.000	
51	  CG	36.798	28.136	62.459	C.2	7	PHE98	0.000	
52	 CD1	37.178	27.601	61.235	C.2	7	PHE98	0.000	
53	 CD2	36.542	29.498	62.547	C.2	7	PHE98	0.000	
54	 CE1	37.323	28.414	60.124	C.2	7	PHE98	0.000	
55	 CE2	36.683	30.318	61.443	C.2	7	PHE98	0.000	
56	  CZ	37.068	29.775	60.230	C.2	7	PHE98	0.000	
57	   N	36.647	26.711	66.561	N.am	8	GLU99	0.000	
58	  CA	36.054	25.826	67.554	C.3	8	GLU99	0.000	
59	   C	35.208	24.762	66.837	C.2	8	GLU99	0.000	
60	   O	34.497	25.062	65.867	O.2	8	GLU99	0.000	
61	  CB	35.255	26.610	68.615	C.3	8	GLU99	0.000	
62	  CG	33.962	27.275	68.150	C.3	8	GLU99	0.000	
63	  CD	33.119	27.841	69.291	C.2	8	GLU99	0.000	
64	 OE1	33.140	27.303	70.415	O.co2	8	GLU99	0.000	
65	 OE2	32.417	28.842	69.069	O.co2	8	GLU99	0.000	
66	   N	35.333	23.514	67.281	N.am	9	HIE100	0.000	
67	  CA	34.507	22.433	66.755	C.3	9	HIE100	0.000	
68	   C	33.144	22.422	67.445	C.2	9	HIE100	0.000	
69	   O	33.043	22.698	68.641	O.2	9	HIE100	0.000	
70	  CB	35.195	21.077	66.910	C.3	9	HIE100	0.000	
71	  CG	34.316	19.921	66.554	C.2	9	HIE100	0.000	
72	 CD2	33.775	19.545	65.371	C.2	9	HIE100	0.000	
73	 ND1	33.869	19.011	67.486	N.2	9	HIE100	0.000	
74	 CE1	33.106	18.112	66.889	C.2	9	HIE100	0.000	
75	 NE2	33.032	18.414	65.605	N.pl3	9	HIE100	0.000	
76	   N	32.100	22.134	66.676	N.am	10	VAL101	0.000	
77	  CA	30.752	22.020	67.214	C.3	10	VAL101	0.000	
78	   C	30.206	20.675	66.756	C.2	10	VAL101	0.000	
79	   O	30.524	20.201	65.666	O.2	10	VAL101	0.000	
80	  CB	29.856	23.248	66.846	C.3	10	VAL101	0.000	
81	 CG1	28.392	22.988	67.111	C.3	10	VAL101	0.000	
82	 CG2	30.283	24.460	67.641	C.3	10	VAL101	0.000	
83	   N	29.402	20.065	67.618	N.am	11	ASP102	0.000	
84	  CA	29.112	18.638	67.564	C.3	11	ASP102	0.000	
85	   C	28.404	18.177	66.290	C.2	11	ASP102	0.000	
86	   O	28.716	17.122	65.728	O.2	11	ASP102	0.000	
87	  CB	28.296	18.250	68.798	C.3	11	ASP102	0.000	
88	  CG	28.092	16.760	68.913	C.2	11	ASP102	0.000	
89	 OD1	29.070	16.002	68.718	O.co2	11	ASP102	0.000	
90	 OD2	26.986	16.261	69.198	O.co2	11	ASP102	0.000	
91	   N	27.444	18.981	65.856	N.am	12	GLN103	0.000	
92	  CA	26.623	18.661	64.712	C.3	12	GLN103	0.000	
93	   C	26.058	19.969	64.208	C.2	12	GLN103	0.000	
94	   O	26.219	21.005	64.857	O.2	12	GLN103	0.000	
95	  CB	25.494	17.727	65.122	C.3	12	GLN103	0.000	
96	  CG	24.633	18.285	66.243	C.3	12	GLN103	0.000	
97	  CD	23.375	17.466	66.500	C.2	12	GLN103	0.000	
98	 NE2	22.566	17.913	67.462	N.pl3	12	GLN103	0.000	
99	 OE1	23.126	16.441	65.839	O.2	12	GLN103	0.000	
100	   N	25.407	19.920	63.050	N.am	13	ASP104	0.000	
101	  CA	24.716	21.084	62.499	C.3	13	ASP104	0.000	
102	   C	23.219	20.929	62.744	C.2	13	ASP104	0.000	
103	   O	22.795	19.909	63.280	O.2	13	ASP104	0.000	
104	  CB	25.022	21.227	61.001	C.3	13	ASP104	0.000	
105	  CG	24.429	20.102	60.161	C.2	13	ASP104	0.000	
106	 OD1	23.990	19.071	60.721	O.co2	13	ASP104	0.000	
107	 OD2	24.370	20.167	58.916	O.co2	13	ASP104	0.000	
108	   N	21.812	17.571	60.438	N.am	14	THR107	0.000	
109	  CA	22.041	16.275	61.097	C.3	14	THR107	0.000	
110	   C	21.193	16.119	62.354	C.2	14	THR107	0.000	
111	   O	20.659	15.047	62.622	O.2	14	THR107	0.000	
112	  CB	23.550	16.103	61.432	C.3	14	THR107	0.000	
113	 CG2	23.823	14.798	62.181	C.3	14	THR107	0.000	
114	 OG1	24.292	15.944	60.219	O.3	14	THR107	0.000	
115	   N	22.597	23.913	57.344	N.am	15	GLN149	0.000	
116	  CA	23.976	23.406	57.381	C.3	15	GLN149	0.000	
117	   C	24.988	24.373	57.997	C.2	15	GLN149	0.000	
118	   O	26.050	23.954	58.464	O.2	15	GLN149	0.000	
119	  CB	24.423	23.008	55.994	C.3	15	GLN149	0.000	
120	  CG	23.634	21.853	55.492	C.3	15	GLN149	0.000	
121	  CD	23.024	22.118	54.143	C.2	15	GLN149	0.000	
122	 NE2	21.767	21.704	53.977	N.pl3	15	GLN149	0.000	
123	 OE1	23.676	22.681	53.251	O.2	15	GLN149	0.000	
124	   N	24.659	25.661	57.989	N.am	16	ASN150	0.000	
125	  CA	25.517	26.679	58.588	C.3	16	ASN150	0.000	
126	   C	25.156	26.946	60.062	C.2	16	ASN150	0.000	
127	   O	25.946	27.531	60.804	O.2	16	ASN150	0.000	
128	  CB	25.490	27.981	57.761	C.3	16	ASN150	0.000	
129	  CG	26.226	27.857	56.405	C.2	16	ASN150	0.000	
130	 ND2	26.002	28.833	55.531	N.pl3	16	ASN150	0.000	
131	 OD1	26.986	26.912	56.158	O.2	16	ASN150	0.000	
132	   N	24.865	25.764	63.683	N.am	17	LEU152	0.000	
133	  CA	25.492	24.710	64.468	C.3	17	LEU152	0.000	
134	   C	24.893	24.580	65.857	C.2	17	LEU152	0.000	
135	   O	24.609	25.581	66.517	O.2	17	LEU152	0.000	
136	  CB	26.997	24.951	64.581	C.3	17	LEU152	0.000	
137	  CG	27.774	25.178	63.288	C.3	17	LEU152	0.000	
138	 CD1	29.219	25.274	63.645	C.3	17	LEU152	0.000	
139	 CD2	27.526	24.061	62.282	C.3	17	LEU152	0.000	
140	   N	27.616	29.670	61.506	N.am	18	ALA162	0.000	
141	  CA	28.914	29.323	60.940	C.3	18	ALA162	0.000	
142	   C	29.044	29.745	59.486	C.2	18	ALA162	0.000	
143	   O	28.146	30.384	58.947	O.2	18	ALA162	0.000	
144	  CB	29.190	27.861	61.093	C.3	18	ALA162	0.000	
145	   N	30.167	29.374	58.864	N.am	19	ASP163	0.000	
146	  CA	30.554	29.823	57.522	C.3	19	ASP163	0.000	
147	   C	30.213	31.287	57.267	C.2	19	ASP163	0.000	
148	   O	29.108	31.602	56.826	O.2	19	ASP163	0.000	
149	  CB	29.941	28.934	56.429	C.3	19	ASP163	0.000	
150	  CG	30.542	29.217	55.048	C.2	19	ASP163	0.000	
151	 OD1	30.848	30.404	54.730	O.co2	19	ASP163	0.000	
152	 OD2	30.753	28.307	54.212	O.co2	19	ASP163	0.000	
153	   N	31.172	32.165	57.541	N.am	20	PHE164	0.000	
154	  CA	30.999	33.611	57.328	C.3	20	PHE164	0.000	
155	   C	31.595	34.107	56.010	C.2	20	PHE164	0.000	
156	   O	31.865	35.304	55.843	O.2	20	PHE164	0.000	
157	  CB	31.573	34.405	58.504	C.3	20	PHE164	0.000	
158	  CG	30.645	34.489	59.670	C.2	20	PHE164	0.000	
159	 CD1	29.873	35.628	59.878	C.2	20	PHE164	0.000	
160	 CD2	30.504	33.420	60.542	C.2	20	PHE164	0.000	
161	 CE1	28.999	35.716	60.955	C.2	20	PHE164	0.000	
162	 CE2	29.633	33.502	61.615	C.2	20	PHE164	0.000	
163	  CZ	28.882	34.652	61.819	C.2	20	PHE164	0.000	
@<TRIPOS>BOND
1 1 2 1
2 2 3 1
3 2 5 1
4 3 4 2
5 5 6 1
6 5 7 1
7 6 8 1
8 9 10 1
9 10 11 1
10 10 13 1
11 11 12 2
12 13 14 1
13 13 15 1
14 16 17 1
15 17 18 1
16 17 20 1
17 18 19 2
18 21 22 1
19 22 23 1
20 22 25 1
21 23 24 2
22 25 26 1
23 26 27 1
24 27 28 1
25 28 29 1
26 30 31 1
27 31 32 1
28 31 34 1
29 32 33 2
30 34 35 1
31 35 36 1
32 36 37 2
33 36 38 1
34 39 40 1
35 40 41 1
36 40 43 1
37 41 42 2
38 43 44 1
39 43 45 1
40 46 47 1
41 47 48 1
42 47 50 1
43 48 49 2
44 48 57 1
45 50 51 1
46 51 52 2
47 51 53 1
48 52 54 1
49 53 55 2
50 54 56 2
51 55 56 1
52 57 58 1
53 58 59 1
54 58 61 1
55 59 60 2
56 59 66 1
57 61 62 1
58 62 63 1
59 63 64 2
60 63 65 1
61 66 67 1
62 67 68 1
63 67 70 1
64 68 69 2
65 68 76 1
66 70 71 1
67 71 72 2
68 71 73 1
69 72 75 1
70 73 74 2
71 74 75 1
72 76 77 1
73 77 78 1
74 77 80 1
75 78 79 2
76 78 83 1
77 80 81 1
78 80 82 1
79 83 84 1
80 84 85 1
81 84 87 1
82 85 86 2
83 85 91 1
84 87 88 1
85 88 89 2
86 88 90 1
87 91 92 1
88 92 93 1
89 92 95 1
90 93 94 2
91 93 100 1
92 95 96 1
93 96 97 1
94 97 98 1
95 97 99 2
96 100 101 1
97 101 102 1
98 101 104 1
99 102 103 2
100 104 105 1
101 105 106 2
102 105 107 1
103 108 109 1
104 109 110 1
105 109 112 1
106 110 111 2
107 112 113 1
108 112 114 1
109 115 116 1
110 116 117 1
111 116 119 1
112 117 118 2
113 117 124 1
114 119 120 1
115 120 121 1
116 121 122 1
117 121 123 2
118 124 125 1
119 125 126 1
120 125 128 1
121 126 127 2
122 128 129 1
123 129 130 1
124 129 131 2
125 132 133 1
126 133 134 1
127 133 136 1
128 134 135 2
129 136 137 1
130 137 138 1
131 137 139 1
132 140 141 1
133 141 142 1
134 141 144 1
135 142 143 2
136 142 145 1
137 145 146 1
138 146 147 1
139 146 149 1
140 147 148 2
141 147 153 1
142 149 150 1
143 150 151 2
144 150 152 1
145 153 154 1
146 154 155 1
147 154 157 1
148 155 156 2
149 157 158 1
150 158 159 2
151 158 160 1
152 159 161 1
153 160 162 2
154 161 163 2
155 162 163 1
@<TRIPOS>SUBSTRUCTURE
1	ILE19	1	RESIDUE	1 B	ILE
2	VAL27	9	RESIDUE	1 B	VAL
3	ALA41	16	RESIDUE	1 B	ALA
4	LYS43	21	RESIDUE	1 B	LYS
5	GLU61	30	RESIDUE	1 B	GLU
6	VAL77	39	RESIDUE	1 B	VAL
7	PHE98	46	RESIDUE	1 B	PHE
8	GLU99	57	RESIDUE	1 B	GLU
9	HIE100	66	RESIDUE	1 B	HIE
10	VAL101	76	RESIDUE	1 B	VAL
11	ASP102	83	RESIDUE	1 B	ASP
12	GLN103	91	RESIDUE	1 B	GLN
13	ASP104	100	RESIDUE	1 B	ASP
14	THR107	108	RESIDUE	1 B	THR
15	GLN149	115	RESIDUE	1 B	GLN
16	ASN150	124	RESIDUE	1 B	ASN
17	LEU152	132	RESIDUE	1 B	LEU
18	ALA162	140	RESIDUE	1 B	ALA
19	ASP163	145	RESIDUE	1 B	ASP
20	PHE164	153	RESIDUE	1 B	PHE
