# created with PyMOL 2.5.2
@<TRIPOS>MOLECULE
MLLT1_6HT1_TargetProtein
107 108 13              
SMALL
USER_CHARGES
@<TRIPOS>ATOM
1	   N	-19.853	7.090	53.965	N.am	1	PHE28	0.000	
2	  CA	-18.494	6.980	54.534	C.3	1	PHE28	0.000	
3	   C	-18.477	7.730	55.859	C.2	1	PHE28	0.000	
4	   O	-18.844	8.918	55.909	O.2	1	PHE28	0.000	
5	  CB	-17.435	7.502	53.582	C.3	1	PHE28	0.000	
6	  CG	-17.434	6.860	52.223	C.2	1	PHE28	0.000	
7	 CD1	-17.472	5.481	52.095	C.2	1	PHE28	0.000	
8	 CD2	-17.306	7.639	51.076	C.2	1	PHE28	0.000	
9	 CE1	-17.449	4.890	50.842	C.2	1	PHE28	0.000	
10	 CE2	-17.330	7.051	49.820	C.2	1	PHE28	0.000	
11	  CZ	-17.397	5.674	49.707	C.2	1	PHE28	0.000	
12	   N	-9.394	-3.038	50.455	N.am	2	HIE56	0.000	
13	  CA	-10.593	-3.889	50.352	C.3	2	HIE56	0.000	
14	   C	-11.093	-3.886	48.893	C.2	2	HIE56	0.000	
15	   O	-11.012	-2.787	48.267	O.2	2	HIE56	0.000	
16	  CB	-11.645	-3.402	51.356	C.3	2	HIE56	0.000	
17	  CG	-12.785	-4.348	51.503	C.2	2	HIE56	0.000	
18	 CD2	-12.970	-5.405	52.321	C.2	2	HIE56	0.000	
19	 ND1	-13.849	-4.335	50.648	N.2	2	HIE56	0.000	
20	 CE1	-14.681	-5.312	50.966	C.2	2	HIE56	0.000	
21	 NE2	-14.180	-5.946	52.012	N.pl3	2	HIE56	0.000	
22	   N	-13.759	-3.708	47.549	N.am	3	SER58	0.000	
23	  CA	-14.885	-2.755	47.349	C.3	3	SER58	0.000	
24	   C	-14.386	-1.400	46.860	C.2	3	SER58	0.000	
25	   O	-15.219	-0.643	46.398	O.2	3	SER58	0.000	
26	  CB	-15.679	-2.577	48.596	C.3	3	SER58	0.000	
27	  OG	-14.845	-2.121	49.650	O.3	3	SER58	0.000	
28	   N	-13.111	-1.053	47.076	N.am	4	PHE59	0.000	
29	  CA	-12.535	0.273	46.725	C.3	4	PHE59	0.000	
30	   C	-12.295	0.347	45.228	C.2	4	PHE59	0.000	
31	   O	-11.941	-0.636	44.596	O.2	4	PHE59	0.000	
32	  CB	-11.206	0.539	47.435	C.3	4	PHE59	0.000	
33	  CG	-11.345	0.998	48.863	C.2	4	PHE59	0.000	
34	 CD1	-11.607	0.088	49.874	C.2	4	PHE59	0.000	
35	 CD2	-11.314	2.348	49.187	C.2	4	PHE59	0.000	
36	 CE1	-11.781	0.514	51.189	C.2	4	PHE59	0.000	
37	 CE2	-11.436	2.769	50.509	C.2	4	PHE59	0.000	
38	  CZ	-11.717	1.852	51.502	C.2	4	PHE59	0.000	
39	   N	-12.491	1.516	44.612	N.am	5	PRO60	0.000	
40	  CA	-12.094	1.692	43.225	C.3	5	PRO60	0.000	
41	   C	-10.564	1.601	43.176	C.2	5	PRO60	0.000	
42	   O	-9.951	1.948	44.142	O.2	5	PRO60	0.000	
43	  CB	-12.673	3.063	42.834	C.3	5	PRO60	0.000	
44	  CG	-12.878	3.789	44.165	C.3	5	PRO60	0.000	
45	  CD	-13.120	2.707	45.199	C.3	5	PRO60	0.000	
46	   N	-3.305	0.135	45.066	N.am	6	ARG64	0.000	
47	  CA	-2.836	1.539	45.097	C.3	6	ARG64	0.000	
48	   C	-1.316	1.556	45.174	C.2	6	ARG64	0.000	
49	   O	-0.736	0.966	46.129	O.2	6	ARG64	0.000	
50	  CB	-3.452	2.256	46.295	C.3	6	ARG64	0.000	
51	  CG	-4.952	2.409	46.201	C.3	6	ARG64	0.000	
52	  CD	-5.396	3.340	45.073	C.3	6	ARG64	0.000	
53	  NE	-6.842	3.344	45.127	N.pl3	6	ARG64	0.000	
54	  CZ	-7.573	3.990	46.019	C.cat	6	ARG64	0.000	
55	 NH1	-7.028	4.848	46.867	N.pl3	6	ARG64	0.000	
56	 NH2	-8.875	3.811	46.025	N.pl3	6	ARG64	0.000	
57	   N	-8.027	7.947	52.313	N.am	7	GLU75	0.000	
58	  CA	-9.358	7.470	51.897	C.3	7	GLU75	0.000	
59	   C	-10.394	7.864	52.926	C.2	7	GLU75	0.000	
60	   O	-10.057	8.321	54.001	O.2	7	GLU75	0.000	
61	  CB	-9.347	5.956	51.711	C.3	7	GLU75	0.000	
62	  CG	-9.021	5.521	50.301	C.3	7	GLU75	0.000	
63	  CD	-10.067	5.891	49.271	C.2	7	GLU75	0.000	
64	 OE1	-9.874	5.496	48.098	O.co2	7	GLU75	0.000	
65	 OE2	-11.079	6.624	49.639	O.co2	7	GLU75	0.000	
66	   N	-11.634	7.696	52.555	N.am	8	SER76	0.000	
67	  CA	-12.781	7.605	53.471	C.3	8	SER76	0.000	
68	   C	-13.414	6.226	53.267	C.2	8	SER76	0.000	
69	   O	-13.149	5.581	52.231	O.2	8	SER76	0.000	
70	  CB	-13.750	8.730	53.221	C.3	8	SER76	0.000	
71	  OG	-13.277	9.943	53.791	O.3	8	SER76	0.000	
72	   N	-14.116	5.734	54.262	N.am	9	GLY77	0.000	
73	  CA	-14.678	4.384	54.196	C.3	9	GLY77	0.000	
74	   C	-15.612	4.132	55.353	C.2	9	GLY77	0.000	
75	   O	-15.859	5.092	56.182	O.2	9	GLY77	0.000	
76	   N	-16.116	2.910	55.451	N.am	10	TYR78	0.000	
77	  CA	-17.201	2.523	56.391	C.3	10	TYR78	0.000	
78	   C	-16.663	1.568	57.480	C.2	10	TYR78	0.000	
79	   O	-17.334	1.434	58.499	O.2	10	TYR78	0.000	
80	  CB	-18.323	1.764	55.680	C.3	10	TYR78	0.000	
81	  CG	-18.849	2.287	54.367	C.2	10	TYR78	0.000	
82	 CD1	-19.754	3.343	54.327	C.2	10	TYR78	0.000	
83	 CD2	-18.681	1.550	53.202	C.2	10	TYR78	0.000	
84	 CE1	-20.375	3.729	53.148	C.2	10	TYR78	0.000	
85	 CE2	-19.286	1.932	52.006	C.2	10	TYR78	0.000	
86	  CZ	-20.136	3.028	51.978	C.2	10	TYR78	0.000	
87	  OH	-20.748	3.411	50.815	O.3	10	TYR78	0.000	
88	   N	-15.550	0.872	57.218	N.am	11	ALA79	0.000	
89	  CA	-15.039	-0.193	58.131	C.3	11	ALA79	0.000	
90	   C	-13.531	-0.411	57.947	C.2	11	ALA79	0.000	
91	   O	-12.977	-0.092	56.854	O.2	11	ALA79	0.000	
92	  CB	-15.798	-1.482	57.913	C.3	11	ALA79	0.000	
93	   N	-12.897	-0.952	58.985	N.am	12	GLY80	0.000	
94	  CA	-11.513	-1.399	58.955	C.3	12	GLY80	0.000	
95	   C	-11.388	-2.662	58.125	C.2	12	GLY80	0.000	
96	   O	-12.411	-3.294	57.851	O.2	12	GLY80	0.000	
97	   N	-10.172	-3.016	57.718	N.am	13	PHE81	0.000	
98	  CA	-9.877	-4.317	57.088	C.3	13	PHE81	0.000	
99	   C	-8.392	-4.581	57.234	C.2	13	PHE81	0.000	
100	   O	-7.682	-3.695	57.636	O.2	13	PHE81	0.000	
101	  CB	-10.330	-4.288	55.622	C.3	13	PHE81	0.000	
102	  CG	-9.775	-3.132	54.846	C.2	13	PHE81	0.000	
103	 CD1	-10.317	-1.870	54.976	C.2	13	PHE81	0.000	
104	 CD2	-8.665	-3.285	54.034	C.2	13	PHE81	0.000	
105	 CE1	-9.800	-0.808	54.271	C.2	13	PHE81	0.000	
106	 CE2	-8.144	-2.211	53.347	C.2	13	PHE81	0.000	
107	  CZ	-8.704	-0.975	53.485	C.2	13	PHE81	0.000	
@<TRIPOS>BOND
1 1 2 1
2 2 3 1
3 2 5 1
4 3 4 2
5 5 6 1
6 6 7 2
7 6 8 1
8 7 9 1
9 8 10 2
10 9 11 2
11 10 11 1
12 12 13 1
13 13 14 1
14 13 16 1
15 14 15 2
16 16 17 1
17 17 18 2
18 17 19 1
19 18 21 1
20 19 20 2
21 20 21 1
22 22 23 1
23 23 24 1
24 23 26 1
25 24 25 2
26 24 28 1
27 26 27 1
28 28 29 1
29 29 30 1
30 29 32 1
31 30 31 2
32 30 39 1
33 32 33 1
34 33 34 2
35 33 35 1
36 34 36 1
37 35 37 2
38 36 38 2
39 37 38 1
40 39 40 1
41 39 45 1
42 40 41 1
43 40 43 1
44 41 42 2
45 43 44 1
46 44 45 1
47 46 47 1
48 47 48 1
49 47 50 1
50 48 49 2
51 50 51 1
52 51 52 1
53 52 53 1
54 53 54 1
55 54 55 2
56 54 56 1
57 57 58 1
58 58 59 1
59 58 61 1
60 59 60 2
61 59 66 1
62 61 62 1
63 62 63 1
64 63 64 2
65 63 65 1
66 66 67 1
67 67 68 1
68 67 70 1
69 68 69 2
70 68 72 1
71 70 71 1
72 72 73 1
73 73 74 1
74 74 75 2
75 74 76 1
76 76 77 1
77 77 78 1
78 77 80 1
79 78 79 2
80 78 88 1
81 80 81 1
82 81 82 2
83 81 83 1
84 82 84 1
85 83 85 2
86 84 86 2
87 85 86 1
88 86 87 1
89 88 89 1
90 89 90 1
91 89 92 1
92 90 91 2
93 90 93 1
94 93 94 1
95 94 95 1
96 95 96 2
97 95 97 1
98 97 98 1
99 98 99 1
100 98 101 1
101 99 100 2
102 101 102 1
103 102 103 2
104 102 104 1
105 103 105 1
106 104 106 2
107 105 107 2
108 106 107 1
@<TRIPOS>SUBSTRUCTURE
1	PHE28	1	RESIDUE	1 B	PHE
2	HIE56	12	RESIDUE	1 B	HIE
3	SER58	22	RESIDUE	1 B	SER
4	PHE59	28	RESIDUE	1 B	PHE
5	PRO60	39	RESIDUE	1 B	PRO
6	ARG64	46	RESIDUE	1 B	ARG
7	GLU75	57	RESIDUE	1 B	GLU
8	SER76	66	RESIDUE	1 B	SER
9	GLY77	72	RESIDUE	1 B	GLY
10	TYR78	76	RESIDUE	1 B	TYR
11	ALA79	88	RESIDUE	1 B	ALA
12	GLY80	93	RESIDUE	1 B	GLY
13	PHE81	97	RESIDUE	1 B	PHE
