# created with PyMOL 2.5.2
@<TRIPOS>MOLECULE
BRD9_6HM0_TargetProtein
128 130 15              
SMALL
USER_CHARGES
@<TRIPOS>ATOM
1	   N	4.257	5.048	2.721	N.am	1	HIE42	0.000	
2	  CA	3.473	4.268	1.751	C.3	1	HIE42	0.000	
3	   C	3.943	2.805	1.672	C.2	1	HIE42	0.000	
4	   O	3.327	2.014	0.978	O.2	1	HIE42	0.000	
5	  CB	3.533	4.926	0.367	C.3	1	HIE42	0.000	
6	  CG	2.900	6.277	0.309	C.2	1	HIE42	0.000	
7	 CD2	3.338	7.440	-0.222	C.2	1	HIE42	0.000	
8	 ND1	1.628	6.526	0.793	N.2	1	HIE42	0.000	
9	 CE1	1.335	7.793	0.599	C.2	1	HIE42	0.000	
10	 NE2	2.370	8.375	-0.019	N.pl3	1	HIE42	0.000	
11	   N	5.047	2.455	2.356	N.am	2	GLY43	0.000	
12	  CA	5.517	1.069	2.449	C.3	2	GLY43	0.000	
13	   C	6.143	0.548	1.149	C.2	2	GLY43	0.000	
14	   O	6.136	-0.665	0.900	O.2	2	GLY43	0.000	
15	   N	6.718	1.444	0.339	N.am	3	PHE44	0.000	
16	  CA	7.297	1.070	-0.924	C.3	3	PHE44	0.000	
17	   C	8.572	0.232	-0.719	C.2	3	PHE44	0.000	
18	   O	8.916	-0.563	-1.572	O.2	3	PHE44	0.000	
19	  CB	7.659	2.307	-1.750	C.3	3	PHE44	0.000	
20	  CG	6.502	3.161	-2.202	C.2	3	PHE44	0.000	
21	 CD1	5.308	2.599	-2.644	C.2	3	PHE44	0.000	
22	 CD2	6.636	4.543	-2.222	C.2	3	PHE44	0.000	
23	 CE1	4.277	3.409	-3.097	C.2	3	PHE44	0.000	
24	 CE2	5.605	5.352	-2.669	C.2	3	PHE44	0.000	
25	  CZ	4.419	4.791	-3.092	C.2	3	PHE44	0.000	
26	   N	9.245	0.420	0.422	N.am	4	PHE45	0.000	
27	  CA	10.468	-0.298	0.738	C.3	4	PHE45	0.000	
28	   C	10.230	-1.338	1.835	C.2	4	PHE45	0.000	
29	   O	11.194	-1.873	2.356	O.2	4	PHE45	0.000	
30	  CB	11.564	0.683	1.153	C.3	4	PHE45	0.000	
31	  CG	12.005	1.587	0.039	C.2	4	PHE45	0.000	
32	 CD1	12.773	1.094	-1.004	C.2	4	PHE45	0.000	
33	 CD2	11.596	2.911	0.003	C.2	4	PHE45	0.000	
34	 CE1	13.176	1.923	-2.037	C.2	4	PHE45	0.000	
35	 CE2	11.983	3.738	-1.042	C.2	4	PHE45	0.000	
36	  CZ	12.761	3.244	-2.062	C.2	4	PHE45	0.000	
37	   N	8.961	-1.635	2.158	N.am	5	ALA46	0.000	
38	  CA	8.644	-2.510	3.324	C.3	5	ALA46	0.000	
39	   C	8.889	-3.984	2.963	C.2	5	ALA46	0.000	
40	   O	9.387	-4.723	3.784	O.2	5	ALA46	0.000	
41	  CB	7.227	-2.287	3.816	C.3	5	ALA46	0.000	
42	   N	8.506	-4.385	1.736	N.am	6	PHE47	0.000	
43	  CA	8.546	-5.757	1.283	C.3	6	PHE47	0.000	
44	   C	9.192	-5.821	-0.092	C.2	6	PHE47	0.000	
45	   O	9.384	-4.808	-0.735	O.2	6	PHE47	0.000	
46	  CB	7.140	-6.355	1.326	C.3	6	PHE47	0.000	
47	  CG	6.627	-6.467	2.737	C.2	6	PHE47	0.000	
48	 CD1	7.218	-7.359	3.632	C.2	6	PHE47	0.000	
49	 CD2	5.616	-5.641	3.208	C.2	6	PHE47	0.000	
50	 CE1	6.759	-7.472	4.943	C.2	6	PHE47	0.000	
51	 CE2	5.186	-5.729	4.525	C.2	6	PHE47	0.000	
52	  CZ	5.750	-6.647	5.388	C.2	6	PHE47	0.000	
53	   N	9.565	-7.018	-0.586	N.am	7	PRO48	0.000	
54	  CA	10.192	-7.136	-1.903	C.3	7	PRO48	0.000	
55	   C	9.276	-6.659	-3.054	C.2	7	PRO48	0.000	
56	   O	8.097	-6.956	-3.057	O.2	7	PRO48	0.000	
57	  CB	10.471	-8.641	-2.044	C.3	7	PRO48	0.000	
58	  CG	10.434	-9.177	-0.619	C.3	7	PRO48	0.000	
59	  CD	9.405	-8.321	0.088	C.3	7	PRO48	0.000	
60	   N	9.856	-5.951	-4.032	N.am	8	VAL49	0.000	
61	  CA	9.189	-5.570	-5.250	C.3	8	VAL49	0.000	
62	   C	8.948	-6.834	-6.088	C.2	8	VAL49	0.000	
63	   O	9.889	-7.593	-6.326	O.2	8	VAL49	0.000	
64	  CB	10.029	-4.545	-6.039	C.3	8	VAL49	0.000	
65	 CG1	9.337	-4.142	-7.335	C.3	8	VAL49	0.000	
66	 CG2	10.336	-3.303	-5.210	C.3	8	VAL49	0.000	
67	   N	3.974	-6.041	-9.973	N.am	9	ILE53	0.000	
68	  CA	3.692	-4.616	-9.787	C.3	9	ILE53	0.000	
69	   C	4.770	-3.778	-10.472	C.2	9	ILE53	0.000	
70	   O	4.572	-2.605	-10.656	O.2	9	ILE53	0.000	
71	  CB	3.514	-4.240	-8.293	C.3	9	ILE53	0.000	
72	 CG1	4.803	-4.386	-7.491	C.3	9	ILE53	0.000	
73	 CG2	2.373	-5.027	-7.661	C.3	9	ILE53	0.000	
74	 CD1	4.794	-3.562	-6.208	C.3	9	ILE53	0.000	
75	   N	5.874	-4.419	-10.872	N.am	10	ALA54	0.000	
76	  CA	7.018	-3.760	-11.478	C.3	10	ALA54	0.000	
77	   C	7.535	-4.630	-12.615	C.2	10	ALA54	0.000	
78	   O	8.442	-5.421	-12.430	O.2	10	ALA54	0.000	
79	  CB	8.080	-3.523	-10.435	C.3	10	ALA54	0.000	
80	   N	11.185	-6.410	-13.371	N.am	11	TYR57	0.000	
81	  CA	12.048	-6.039	-12.240	C.3	11	TYR57	0.000	
82	   C	13.173	-7.066	-12.039	C.2	11	TYR57	0.000	
83	   O	14.326	-6.704	-11.938	O.2	11	TYR57	0.000	
84	  CB	11.246	-5.887	-10.941	C.3	11	TYR57	0.000	
85	  CG	12.019	-5.269	-9.801	C.2	11	TYR57	0.000	
86	 CD1	12.140	-3.891	-9.724	C.2	11	TYR57	0.000	
87	 CD2	12.626	-6.041	-8.811	C.2	11	TYR57	0.000	
88	 CE1	12.817	-3.284	-8.682	C.2	11	TYR57	0.000	
89	 CE2	13.339	-5.453	-7.778	C.2	11	TYR57	0.000	
90	  CZ	13.420	-4.066	-7.707	C.2	11	TYR57	0.000	
91	  OH	14.118	-3.438	-6.714	O.3	11	TYR57	0.000	
92	   N	16.588	0.935	-6.431	N.am	12	ALA96	0.000	
93	  CA	15.489	1.830	-6.807	C.3	12	ALA96	0.000	
94	   C	15.938	2.815	-7.898	C.2	12	ALA96	0.000	
95	   O	15.174	3.115	-8.823	O.2	12	ALA96	0.000	
96	  CB	14.974	2.540	-5.596	C.3	12	ALA96	0.000	
97	   N	16.384	0.642	-11.453	N.am	13	TYR99	0.000	
98	  CA	15.161	0.200	-12.117	C.3	13	TYR99	0.000	
99	   C	14.266	1.385	-12.540	C.2	13	TYR99	0.000	
100	   O	13.617	1.319	-13.582	O.2	13	TYR99	0.000	
101	  CB	14.337	-0.733	-11.229	C.3	13	TYR99	0.000	
102	  CG	13.021	-1.144	-11.857	C.2	13	TYR99	0.000	
103	 CD1	12.972	-2.110	-12.847	C.2	13	TYR99	0.000	
104	 CD2	11.830	-0.545	-11.488	C.2	13	TYR99	0.000	
105	 CE1	11.778	-2.474	-13.458	C.2	13	TYR99	0.000	
106	 CE2	10.624	-0.908	-12.073	C.2	13	TYR99	0.000	
107	  CZ	10.590	-1.886	-13.059	C.2	13	TYR99	0.000	
108	  OH	9.421	-2.269	-13.658	O.3	13	TYR99	0.000	
109	   N	14.174	2.421	-11.693	N.am	14	ASN100	0.000	
110	  CA	13.246	3.519	-11.914	C.3	14	ASN100	0.000	
111	   C	13.934	4.681	-12.652	C.2	14	ASN100	0.000	
112	   O	15.086	4.971	-12.455	O.2	14	ASN100	0.000	
113	  CB	12.614	4.007	-10.609	C.3	14	ASN100	0.000	
114	  CG	11.893	2.904	-9.868	C.2	14	ASN100	0.000	
115	 ND2	12.538	2.337	-8.859	N.pl3	14	ASN100	0.000	
116	 OD1	10.762	2.582	-10.198	O.2	14	ASN100	0.000	
117	   N	9.598	6.616	-6.678	N.am	15	TYR106	0.000	
118	  CA	10.491	5.615	-6.080	C.3	15	TYR106	0.000	
119	   C	11.935	6.112	-6.128	C.2	15	TYR106	0.000	
120	   O	12.673	5.939	-5.179	O.2	15	TYR106	0.000	
121	  CB	10.393	4.249	-6.777	C.3	15	TYR106	0.000	
122	  CG	8.988	3.762	-6.910	C.2	15	TYR106	0.000	
123	 CD1	8.261	3.429	-5.792	C.2	15	TYR106	0.000	
124	 CD2	8.373	3.666	-8.145	C.2	15	TYR106	0.000	
125	 CE1	6.951	3.011	-5.889	C.2	15	TYR106	0.000	
126	 CE2	7.059	3.245	-8.261	C.2	15	TYR106	0.000	
127	  CZ	6.353	2.913	-7.125	C.2	15	TYR106	0.000	
128	  OH	5.051	2.523	-7.199	O.3	15	TYR106	0.000	
@<TRIPOS>BOND
1 1 2 1
2 2 3 1
3 2 5 1
4 3 4 2
5 3 11 1
6 5 6 1
7 6 7 2
8 6 8 1
9 7 10 1
10 8 9 2
11 9 10 1
12 11 12 1
13 12 13 1
14 13 14 2
15 13 15 1
16 15 16 1
17 16 17 1
18 16 19 1
19 17 18 2
20 17 26 1
21 19 20 1
22 20 21 2
23 20 22 1
24 21 23 1
25 22 24 2
26 23 25 2
27 24 25 1
28 26 27 1
29 27 28 1
30 27 30 1
31 28 29 2
32 28 37 1
33 30 31 1
34 31 32 2
35 31 33 1
36 32 34 1
37 33 35 2
38 34 36 2
39 35 36 1
40 37 38 1
41 38 39 1
42 38 41 1
43 39 40 2
44 39 42 1
45 42 43 1
46 43 44 1
47 43 46 1
48 44 45 2
49 44 53 1
50 46 47 1
51 47 48 2
52 47 49 1
53 48 50 1
54 49 51 2
55 50 52 2
56 51 52 1
57 53 54 1
58 53 59 1
59 54 55 1
60 54 57 1
61 55 56 2
62 55 60 1
63 57 58 1
64 58 59 1
65 60 61 1
66 61 62 1
67 61 64 1
68 62 63 2
69 64 65 1
70 64 66 1
71 67 68 1
72 68 69 1
73 68 71 1
74 69 70 2
75 69 75 1
76 71 72 1
77 71 73 1
78 72 74 1
79 75 76 1
80 76 77 1
81 76 79 1
82 77 78 2
83 80 81 1
84 81 82 1
85 81 84 1
86 82 83 2
87 84 85 1
88 85 86 2
89 85 87 1
90 86 88 1
91 87 89 2
92 88 90 2
93 89 90 1
94 90 91 1
95 92 93 1
96 93 94 1
97 93 96 1
98 94 95 2
99 97 98 1
100 98 99 1
101 98 101 1
102 99 100 2
103 99 109 1
104 101 102 1
105 102 103 2
106 102 104 1
107 103 105 1
108 104 106 2
109 105 107 2
110 106 107 1
111 107 108 1
112 109 110 1
113 110 111 1
114 110 113 1
115 111 112 2
116 113 114 1
117 114 115 1
118 114 116 2
119 117 118 1
120 118 119 1
121 118 121 1
122 119 120 2
123 121 122 1
124 122 123 2
125 122 124 1
126 123 125 1
127 124 126 2
128 125 127 2
129 126 127 1
130 127 128 1
@<TRIPOS>SUBSTRUCTURE
1	HIE42	1	RESIDUE	1 B	HIE
2	GLY43	11	RESIDUE	1 B	GLY
3	PHE44	15	RESIDUE	1 B	PHE
4	PHE45	26	RESIDUE	1 B	PHE
5	ALA46	37	RESIDUE	1 B	ALA
6	PHE47	42	RESIDUE	1 B	PHE
7	PRO48	53	RESIDUE	1 B	PRO
8	VAL49	60	RESIDUE	1 B	VAL
9	ILE53	67	RESIDUE	1 B	ILE
10	ALA54	75	RESIDUE	1 B	ALA
11	TYR57	80	RESIDUE	1 B	TYR
12	ALA96	92	RESIDUE	1 B	ALA
13	TYR99	97	RESIDUE	1 B	TYR
14	ASN100	109	RESIDUE	1 B	ASN
15	TYR106	117	RESIDUE	1 B	TYR
