# created with PyMOL 2.5.2
@<TRIPOS>MOLECULE
BRD9_6HM0_TargetProtein
135 138 16              
SMALL
USER_CHARGES
@<TRIPOS>ATOM
1	   N	6.192	6.210	4.438	N.am	1	PRO41	0.000	
2	  CA	4.833	5.975	4.926	C.3	1	PRO41	0.000	
3	   C	3.974	5.069	4.028	C.2	1	PRO41	0.000	
4	   O	3.075	4.400	4.540	O.2	1	PRO41	0.000	
5	  CB	4.201	7.382	4.992	C.3	1	PRO41	0.000	
6	  CG	5.033	8.206	4.029	C.3	1	PRO41	0.000	
7	  CD	6.427	7.624	4.119	C.3	1	PRO41	0.000	
8	   N	4.257	5.048	2.721	N.am	2	HIE42	0.000	
9	  CA	3.473	4.268	1.751	C.3	2	HIE42	0.000	
10	   C	3.943	2.805	1.672	C.2	2	HIE42	0.000	
11	   O	3.327	2.014	0.978	O.2	2	HIE42	0.000	
12	  CB	3.533	4.926	0.367	C.3	2	HIE42	0.000	
13	  CG	2.900	6.277	0.309	C.2	2	HIE42	0.000	
14	 CD2	3.338	7.440	-0.222	C.2	2	HIE42	0.000	
15	 ND1	1.628	6.526	0.793	N.2	2	HIE42	0.000	
16	 CE1	1.335	7.793	0.599	C.2	2	HIE42	0.000	
17	 NE2	2.370	8.375	-0.019	N.pl3	2	HIE42	0.000	
18	   N	5.047	2.455	2.356	N.am	3	GLY43	0.000	
19	  CA	5.517	1.069	2.449	C.3	3	GLY43	0.000	
20	   C	6.143	0.548	1.149	C.2	3	GLY43	0.000	
21	   O	6.136	-0.665	0.900	O.2	3	GLY43	0.000	
22	   N	6.718	1.444	0.339	N.am	4	PHE44	0.000	
23	  CA	7.297	1.070	-0.924	C.3	4	PHE44	0.000	
24	   C	8.572	0.232	-0.719	C.2	4	PHE44	0.000	
25	   O	8.916	-0.563	-1.572	O.2	4	PHE44	0.000	
26	  CB	7.659	2.307	-1.750	C.3	4	PHE44	0.000	
27	  CG	6.502	3.161	-2.202	C.2	4	PHE44	0.000	
28	 CD1	5.308	2.599	-2.644	C.2	4	PHE44	0.000	
29	 CD2	6.636	4.543	-2.222	C.2	4	PHE44	0.000	
30	 CE1	4.277	3.409	-3.097	C.2	4	PHE44	0.000	
31	 CE2	5.605	5.352	-2.669	C.2	4	PHE44	0.000	
32	  CZ	4.419	4.791	-3.092	C.2	4	PHE44	0.000	
33	   N	9.245	0.420	0.422	N.am	5	PHE45	0.000	
34	  CA	10.468	-0.298	0.738	C.3	5	PHE45	0.000	
35	   C	10.230	-1.338	1.835	C.2	5	PHE45	0.000	
36	   O	11.194	-1.873	2.356	O.2	5	PHE45	0.000	
37	  CB	11.564	0.683	1.153	C.3	5	PHE45	0.000	
38	  CG	12.005	1.587	0.039	C.2	5	PHE45	0.000	
39	 CD1	12.773	1.094	-1.004	C.2	5	PHE45	0.000	
40	 CD2	11.596	2.911	0.003	C.2	5	PHE45	0.000	
41	 CE1	13.176	1.923	-2.037	C.2	5	PHE45	0.000	
42	 CE2	11.983	3.738	-1.042	C.2	5	PHE45	0.000	
43	  CZ	12.761	3.244	-2.062	C.2	5	PHE45	0.000	
44	   N	8.961	-1.635	2.158	N.am	6	ALA46	0.000	
45	  CA	8.644	-2.510	3.324	C.3	6	ALA46	0.000	
46	   C	8.889	-3.984	2.963	C.2	6	ALA46	0.000	
47	   O	9.387	-4.723	3.784	O.2	6	ALA46	0.000	
48	  CB	7.227	-2.287	3.816	C.3	6	ALA46	0.000	
49	   N	8.506	-4.385	1.736	N.am	7	PHE47	0.000	
50	  CA	8.546	-5.757	1.283	C.3	7	PHE47	0.000	
51	   C	9.192	-5.821	-0.092	C.2	7	PHE47	0.000	
52	   O	9.384	-4.808	-0.735	O.2	7	PHE47	0.000	
53	  CB	7.140	-6.355	1.326	C.3	7	PHE47	0.000	
54	  CG	6.627	-6.467	2.737	C.2	7	PHE47	0.000	
55	 CD1	7.218	-7.359	3.632	C.2	7	PHE47	0.000	
56	 CD2	5.616	-5.641	3.208	C.2	7	PHE47	0.000	
57	 CE1	6.759	-7.472	4.943	C.2	7	PHE47	0.000	
58	 CE2	5.186	-5.729	4.525	C.2	7	PHE47	0.000	
59	  CZ	5.750	-6.647	5.388	C.2	7	PHE47	0.000	
60	   N	9.565	-7.018	-0.586	N.am	8	PRO48	0.000	
61	  CA	10.192	-7.136	-1.903	C.3	8	PRO48	0.000	
62	   C	9.276	-6.659	-3.054	C.2	8	PRO48	0.000	
63	   O	8.097	-6.956	-3.057	O.2	8	PRO48	0.000	
64	  CB	10.471	-8.641	-2.044	C.3	8	PRO48	0.000	
65	  CG	10.434	-9.177	-0.619	C.3	8	PRO48	0.000	
66	  CD	9.405	-8.321	0.088	C.3	8	PRO48	0.000	
67	   N	9.856	-5.951	-4.032	N.am	9	VAL49	0.000	
68	  CA	9.189	-5.570	-5.250	C.3	9	VAL49	0.000	
69	   C	8.948	-6.834	-6.088	C.2	9	VAL49	0.000	
70	   O	9.889	-7.593	-6.326	O.2	9	VAL49	0.000	
71	  CB	10.029	-4.545	-6.039	C.3	9	VAL49	0.000	
72	 CG1	9.337	-4.142	-7.335	C.3	9	VAL49	0.000	
73	 CG2	10.336	-3.303	-5.210	C.3	9	VAL49	0.000	
74	   N	3.974	-6.041	-9.973	N.am	10	ILE53	0.000	
75	  CA	3.692	-4.616	-9.787	C.3	10	ILE53	0.000	
76	   C	4.770	-3.778	-10.472	C.2	10	ILE53	0.000	
77	   O	4.572	-2.605	-10.656	O.2	10	ILE53	0.000	
78	  CB	3.514	-4.240	-8.293	C.3	10	ILE53	0.000	
79	 CG1	4.803	-4.386	-7.491	C.3	10	ILE53	0.000	
80	 CG2	2.373	-5.027	-7.661	C.3	10	ILE53	0.000	
81	 CD1	4.794	-3.562	-6.208	C.3	10	ILE53	0.000	
82	   N	5.874	-4.419	-10.872	N.am	11	ALA54	0.000	
83	  CA	7.018	-3.760	-11.478	C.3	11	ALA54	0.000	
84	   C	7.535	-4.630	-12.615	C.2	11	ALA54	0.000	
85	   O	8.442	-5.421	-12.430	O.2	11	ALA54	0.000	
86	  CB	8.080	-3.523	-10.435	C.3	11	ALA54	0.000	
87	   N	11.185	-6.410	-13.371	N.am	12	TYR57	0.000	
88	  CA	12.048	-6.039	-12.240	C.3	12	TYR57	0.000	
89	   C	13.173	-7.066	-12.039	C.2	12	TYR57	0.000	
90	   O	14.326	-6.704	-11.938	O.2	12	TYR57	0.000	
91	  CB	11.246	-5.887	-10.941	C.3	12	TYR57	0.000	
92	  CG	12.019	-5.269	-9.801	C.2	12	TYR57	0.000	
93	 CD1	12.140	-3.891	-9.724	C.2	12	TYR57	0.000	
94	 CD2	12.626	-6.041	-8.811	C.2	12	TYR57	0.000	
95	 CE1	12.817	-3.284	-8.682	C.2	12	TYR57	0.000	
96	 CE2	13.339	-5.453	-7.778	C.2	12	TYR57	0.000	
97	  CZ	13.420	-4.066	-7.707	C.2	12	TYR57	0.000	
98	  OH	14.118	-3.438	-6.714	O.3	12	TYR57	0.000	
99	   N	16.588	0.935	-6.431	N.am	13	ALA96	0.000	
100	  CA	15.489	1.830	-6.807	C.3	13	ALA96	0.000	
101	   C	15.938	2.815	-7.898	C.2	13	ALA96	0.000	
102	   O	15.174	3.115	-8.823	O.2	13	ALA96	0.000	
103	  CB	14.974	2.540	-5.596	C.3	13	ALA96	0.000	
104	   N	16.384	0.642	-11.453	N.am	14	TYR99	0.000	
105	  CA	15.161	0.200	-12.117	C.3	14	TYR99	0.000	
106	   C	14.266	1.385	-12.540	C.2	14	TYR99	0.000	
107	   O	13.617	1.319	-13.582	O.2	14	TYR99	0.000	
108	  CB	14.337	-0.733	-11.229	C.3	14	TYR99	0.000	
109	  CG	13.021	-1.144	-11.857	C.2	14	TYR99	0.000	
110	 CD1	12.972	-2.110	-12.847	C.2	14	TYR99	0.000	
111	 CD2	11.830	-0.545	-11.488	C.2	14	TYR99	0.000	
112	 CE1	11.778	-2.474	-13.458	C.2	14	TYR99	0.000	
113	 CE2	10.624	-0.908	-12.073	C.2	14	TYR99	0.000	
114	  CZ	10.590	-1.886	-13.059	C.2	14	TYR99	0.000	
115	  OH	9.421	-2.269	-13.658	O.3	14	TYR99	0.000	
116	   N	14.174	2.421	-11.693	N.am	15	ASN100	0.000	
117	  CA	13.246	3.519	-11.914	C.3	15	ASN100	0.000	
118	   C	13.934	4.681	-12.652	C.2	15	ASN100	0.000	
119	   O	15.086	4.971	-12.455	O.2	15	ASN100	0.000	
120	  CB	12.614	4.007	-10.609	C.3	15	ASN100	0.000	
121	  CG	11.893	2.904	-9.868	C.2	15	ASN100	0.000	
122	 ND2	12.538	2.337	-8.859	N.pl3	15	ASN100	0.000	
123	 OD1	10.762	2.582	-10.198	O.2	15	ASN100	0.000	
124	   N	9.598	6.616	-6.678	N.am	16	TYR106	0.000	
125	  CA	10.491	5.615	-6.080	C.3	16	TYR106	0.000	
126	   C	11.935	6.112	-6.128	C.2	16	TYR106	0.000	
127	   O	12.673	5.939	-5.179	O.2	16	TYR106	0.000	
128	  CB	10.393	4.249	-6.777	C.3	16	TYR106	0.000	
129	  CG	8.988	3.762	-6.910	C.2	16	TYR106	0.000	
130	 CD1	8.261	3.429	-5.792	C.2	16	TYR106	0.000	
131	 CD2	8.373	3.666	-8.145	C.2	16	TYR106	0.000	
132	 CE1	6.951	3.011	-5.889	C.2	16	TYR106	0.000	
133	 CE2	7.059	3.245	-8.261	C.2	16	TYR106	0.000	
134	  CZ	6.353	2.913	-7.125	C.2	16	TYR106	0.000	
135	  OH	5.051	2.523	-7.199	O.3	16	TYR106	0.000	
@<TRIPOS>BOND
1 1 2 1
2 1 7 1
3 2 3 1
4 2 5 1
5 3 4 2
6 3 8 1
7 5 6 1
8 6 7 1
9 8 9 1
10 9 10 1
11 9 12 1
12 10 11 2
13 10 18 1
14 12 13 1
15 13 14 2
16 13 15 1
17 14 17 1
18 15 16 2
19 16 17 1
20 18 19 1
21 19 20 1
22 20 21 2
23 20 22 1
24 22 23 1
25 23 24 1
26 23 26 1
27 24 25 2
28 24 33 1
29 26 27 1
30 27 28 2
31 27 29 1
32 28 30 1
33 29 31 2
34 30 32 2
35 31 32 1
36 33 34 1
37 34 35 1
38 34 37 1
39 35 36 2
40 35 44 1
41 37 38 1
42 38 39 2
43 38 40 1
44 39 41 1
45 40 42 2
46 41 43 2
47 42 43 1
48 44 45 1
49 45 46 1
50 45 48 1
51 46 47 2
52 46 49 1
53 49 50 1
54 50 51 1
55 50 53 1
56 51 52 2
57 51 60 1
58 53 54 1
59 54 55 2
60 54 56 1
61 55 57 1
62 56 58 2
63 57 59 2
64 58 59 1
65 60 61 1
66 60 66 1
67 61 62 1
68 61 64 1
69 62 63 2
70 62 67 1
71 64 65 1
72 65 66 1
73 67 68 1
74 68 69 1
75 68 71 1
76 69 70 2
77 71 72 1
78 71 73 1
79 74 75 1
80 75 76 1
81 75 78 1
82 76 77 2
83 76 82 1
84 78 79 1
85 78 80 1
86 79 81 1
87 82 83 1
88 83 84 1
89 83 86 1
90 84 85 2
91 87 88 1
92 88 89 1
93 88 91 1
94 89 90 2
95 91 92 1
96 92 93 2
97 92 94 1
98 93 95 1
99 94 96 2
100 95 97 2
101 96 97 1
102 97 98 1
103 99 100 1
104 100 101 1
105 100 103 1
106 101 102 2
107 104 105 1
108 105 106 1
109 105 108 1
110 106 107 2
111 106 116 1
112 108 109 1
113 109 110 2
114 109 111 1
115 110 112 1
116 111 113 2
117 112 114 2
118 113 114 1
119 114 115 1
120 116 117 1
121 117 118 1
122 117 120 1
123 118 119 2
124 120 121 1
125 121 122 1
126 121 123 2
127 124 125 1
128 125 126 1
129 125 128 1
130 126 127 2
131 128 129 1
132 129 130 2
133 129 131 1
134 130 132 1
135 131 133 2
136 132 134 2
137 133 134 1
138 134 135 1
@<TRIPOS>SUBSTRUCTURE
1	PRO41	1	RESIDUE	1 B	PRO
2	HIE42	8	RESIDUE	1 B	HIE
3	GLY43	18	RESIDUE	1 B	GLY
4	PHE44	22	RESIDUE	1 B	PHE
5	PHE45	33	RESIDUE	1 B	PHE
6	ALA46	44	RESIDUE	1 B	ALA
7	PHE47	49	RESIDUE	1 B	PHE
8	PRO48	60	RESIDUE	1 B	PRO
9	VAL49	67	RESIDUE	1 B	VAL
10	ILE53	74	RESIDUE	1 B	ILE
11	ALA54	82	RESIDUE	1 B	ALA
12	TYR57	87	RESIDUE	1 B	TYR
13	ALA96	99	RESIDUE	1 B	ALA
14	TYR99	104	RESIDUE	1 B	TYR
15	ASN100	116	RESIDUE	1 B	ASN
16	TYR106	124	RESIDUE	1 B	TYR
