# created with PyMOL 2.5.2
@<TRIPOS>MOLECULE
BRD7_6V1E_TargetProtein
120 120 14              
SMALL
USER_CHARGES
@<TRIPOS>ATOM
1	   N	24.318	43.138	28.792	N.am	1	SER153	0.000	
2	  CA	25.162	44.212	28.291	C.3	1	SER153	0.000	
3	   C	24.496	45.022	27.187	C.2	1	SER153	0.000	
4	   O	25.097	45.986	26.700	O.2	1	SER153	0.000	
5	  CB	26.489	43.638	27.785	C.3	1	SER153	0.000	
6	  OG	27.087	42.812	28.769	O.3	1	SER153	0.000	
7	   N	23.278	44.656	26.784	N.am	2	ALA154	0.000	
8	  CA	22.529	45.342	25.732	C.3	2	ALA154	0.000	
9	   C	23.259	45.336	24.391	C.2	2	ALA154	0.000	
10	   O	23.017	46.207	23.547	O.2	2	ALA154	0.000	
11	  CB	22.185	46.781	26.141	C.3	2	ALA154	0.000	
12	   N	24.150	44.360	24.177	N.am	3	PHE155	0.000	
13	  CA	24.885	44.275	22.917	C.3	3	PHE155	0.000	
14	   C	23.951	44.116	21.726	C.2	3	PHE155	0.000	
15	   O	24.258	44.592	20.627	O.2	3	PHE155	0.000	
16	  CB	25.863	43.098	22.949	C.3	3	PHE155	0.000	
17	  CG	27.086	43.330	23.789	C.2	3	PHE155	0.000	
18	 CD1	27.421	44.600	24.228	C.2	3	PHE155	0.000	
19	 CD2	27.911	42.270	24.129	C.2	3	PHE155	0.000	
20	 CE1	28.553	44.805	25.000	C.2	3	PHE155	0.000	
21	 CE2	29.048	42.470	24.898	C.2	3	PHE155	0.000	
22	  CZ	29.367	43.738	25.333	C.2	3	PHE155	0.000	
23	   N	22.815	43.445	21.918	N.am	4	PHE156	0.000	
24	  CA	21.930	43.070	20.824	C.3	4	PHE156	0.000	
25	   C	20.586	43.783	20.896	C.2	4	PHE156	0.000	
26	   O	19.637	43.380	20.214	O.2	4	PHE156	0.000	
27	  CB	21.736	41.553	20.806	C.3	4	PHE156	0.000	
28	  CG	23.020	40.782	20.642	C.2	4	PHE156	0.000	
29	 CD1	23.830	40.511	21.736	C.2	4	PHE156	0.000	
30	 CD2	23.424	40.342	19.393	C.2	4	PHE156	0.000	
31	 CE1	25.016	39.813	21.587	C.2	4	PHE156	0.000	
32	 CE2	24.609	39.641	19.238	C.2	4	PHE156	0.000	
33	  CZ	25.405	39.376	20.337	C.2	4	PHE156	0.000	
34	   N	19.910	46.928	19.951	N.am	5	PHE158	0.000	
35	  CA	19.703	47.928	18.916	C.3	5	PHE158	0.000	
36	   C	20.569	47.605	17.705	C.2	5	PHE158	0.000	
37	   O	21.559	46.876	17.819	O.2	5	PHE158	0.000	
38	  CB	20.006	49.330	19.461	C.3	5	PHE158	0.000	
39	  CG	18.897	49.888	20.307	C.2	5	PHE158	0.000	
40	 CD1	18.962	49.823	21.690	C.2	5	PHE158	0.000	
41	 CD2	17.779	50.460	19.719	C.2	5	PHE158	0.000	
42	 CE1	17.936	50.328	22.471	C.2	5	PHE158	0.000	
43	 CE2	16.751	50.969	20.494	C.2	5	PHE158	0.000	
44	  CZ	16.830	50.901	21.872	C.2	5	PHE158	0.000	
45	   N	20.203	48.120	16.528	N.am	6	PRO159	0.000	
46	  CA	20.933	47.752	15.309	C.3	6	PRO159	0.000	
47	   C	22.384	48.213	15.346	C.2	6	PRO159	0.000	
48	   O	22.721	49.245	15.932	O.2	6	PRO159	0.000	
49	  CB	20.153	48.467	14.197	C.3	6	PRO159	0.000	
50	  CG	18.800	48.730	14.781	C.3	6	PRO159	0.000	
51	  CD	19.041	48.978	16.232	C.3	6	PRO159	0.000	
52	   N	23.243	47.419	14.711	N.am	7	VAL160	0.000	
53	  CA	24.652	47.766	14.549	C.3	7	VAL160	0.000	
54	   C	24.783	48.679	13.337	C.2	7	VAL160	0.000	
55	   O	24.362	48.323	12.232	O.2	7	VAL160	0.000	
56	  CB	25.517	46.507	14.385	C.3	7	VAL160	0.000	
57	 CG1	26.985	46.883	14.271	C.3	7	VAL160	0.000	
58	 CG2	25.295	45.542	15.540	C.3	7	VAL160	0.000	
59	   N	29.643	52.601	14.118	N.am	8	ILE164	0.000	
60	  CA	30.310	51.836	15.170	C.3	8	ILE164	0.000	
61	   C	30.961	50.564	14.655	C.2	8	ILE164	0.000	
62	   O	31.788	49.975	15.362	O.2	8	ILE164	0.000	
63	  CB	29.329	51.471	16.300	C.3	8	ILE164	0.000	
64	 CG1	28.403	50.334	15.865	C.3	8	ILE164	0.000	
65	 CG2	28.515	52.686	16.714	C.3	8	ILE164	0.000	
66	 CD1	27.352	49.975	16.902	C.3	8	ILE164	0.000	
67	   N	30.621	50.123	13.445	N.am	9	ALA165	0.000	
68	  CA	31.184	48.896	12.883	C.3	9	ALA165	0.000	
69	   C	31.347	49.078	11.381	C.2	9	ALA165	0.000	
70	   O	30.449	48.746	10.598	O.2	9	ALA165	0.000	
71	  CB	30.308	47.682	13.190	C.3	9	ALA165	0.000	
72	   N	29.818	47.099	8.035	N.am	10	TYR168	0.000	
73	  CA	28.829	46.130	8.497	C.3	10	TYR168	0.000	
74	   C	27.734	45.922	7.458	C.2	10	TYR168	0.000	
75	   O	27.347	44.782	7.175	O.2	10	TYR168	0.000	
76	  CB	28.227	46.570	9.833	C.3	10	TYR168	0.000	
77	  CG	27.440	45.473	10.524	C.2	10	TYR168	0.000	
78	 CD1	28.072	44.552	11.354	C.2	10	TYR168	0.000	
79	 CD2	26.068	45.352	10.336	C.2	10	TYR168	0.000	
80	 CE1	27.358	43.545	11.982	C.2	10	TYR168	0.000	
81	 CE2	25.346	44.346	10.959	C.2	10	TYR168	0.000	
82	  CZ	25.996	43.448	11.779	C.2	10	TYR168	0.000	
83	  OH	25.278	42.450	12.397	O.3	10	TYR168	0.000	
84	   N	26.633	38.347	14.271	N.am	11	ALA207	0.000	
85	  CA	27.755	38.799	15.089	C.3	11	ALA207	0.000	
86	   C	28.929	37.833	15.021	C.2	11	ALA207	0.000	
87	   O	30.077	38.241	15.225	O.2	11	ALA207	0.000	
88	  CB	27.309	38.990	16.539	C.3	11	ALA207	0.000	
89	   N	30.730	38.883	11.411	N.am	12	TYR210	0.000	
90	  CA	31.435	40.158	11.349	C.3	12	TYR210	0.000	
91	   C	32.572	40.217	12.363	C.2	12	TYR210	0.000	
92	   O	33.638	40.765	12.064	O.2	12	TYR210	0.000	
93	  CB	30.459	41.322	11.564	C.3	12	TYR210	0.000	
94	  CG	31.136	42.673	11.713	C.2	12	TYR210	0.000	
95	 CD1	31.508	43.162	12.964	C.2	12	TYR210	0.000	
96	 CD2	31.427	43.450	10.597	C.2	12	TYR210	0.000	
97	 CE1	32.138	44.393	13.096	C.2	12	TYR210	0.000	
98	 CE2	32.057	44.680	10.720	C.2	12	TYR210	0.000	
99	  CZ	32.410	45.145	11.968	C.2	12	TYR210	0.000	
100	  OH	33.035	46.368	12.079	O.3	12	TYR210	0.000	
101	   N	32.367	39.671	13.560	N.am	13	ASN211	0.000	
102	  CA	33.371	39.688	14.617	C.3	13	ASN211	0.000	
103	   C	34.147	38.376	14.637	C.2	13	ASN211	0.000	
104	   O	33.582	37.304	14.398	O.2	13	ASN211	0.000	
105	  CB	32.727	39.917	15.987	C.3	13	ASN211	0.000	
106	  CG	31.768	41.091	15.998	C.2	13	ASN211	0.000	
107	 ND2	30.475	40.795	16.021	N.pl3	13	ASN211	0.000	
108	 OD1	32.184	42.251	15.987	O.2	13	ASN211	0.000	
109	   N	32.267	40.397	21.322	N.am	14	TYR217	0.000	
110	  CA	30.999	40.321	20.602	C.3	14	TYR217	0.000	
111	   C	30.757	38.919	20.056	C.2	14	TYR217	0.000	
112	   O	29.630	38.413	20.108	O.2	14	TYR217	0.000	
113	  CB	30.973	41.350	19.470	C.3	14	TYR217	0.000	
114	  CG	31.156	42.774	19.946	C.2	14	TYR217	0.000	
115	 CD1	30.489	43.240	21.071	C.2	14	TYR217	0.000	
116	 CD2	32.008	43.647	19.279	C.2	14	TYR217	0.000	
117	 CE1	30.659	44.539	21.516	C.2	14	TYR217	0.000	
118	 CE2	32.187	44.949	19.719	C.2	14	TYR217	0.000	
119	  CZ	31.509	45.388	20.838	C.2	14	TYR217	0.000	
120	  OH	31.677	46.681	21.280	O.3	14	TYR217	0.000	
@<TRIPOS>BOND
1 1 2 1
2 2 3 1
3 2 5 1
4 3 4 2
5 3 7 1
6 5 6 1
7 7 8 1
8 8 9 1
9 8 11 1
10 9 10 2
11 9 12 1
12 12 13 1
13 13 14 1
14 13 16 1
15 14 15 2
16 14 23 1
17 16 17 1
18 17 18 2
19 17 19 1
20 18 20 1
21 19 21 2
22 20 22 2
23 21 22 1
24 23 24 1
25 24 25 1
26 24 27 1
27 25 26 2
28 27 28 1
29 28 29 2
30 28 30 1
31 29 31 1
32 30 32 2
33 31 33 2
34 32 33 1
35 34 35 1
36 35 36 1
37 35 38 1
38 36 37 2
39 36 45 1
40 38 39 1
41 39 40 2
42 39 41 1
43 40 42 1
44 41 43 2
45 42 44 2
46 43 44 1
47 45 46 1
48 45 51 1
49 46 47 1
50 46 49 1
51 47 48 2
52 47 52 1
53 49 50 1
54 50 51 1
55 52 53 1
56 53 54 1
57 53 56 1
58 54 55 2
59 56 57 1
60 56 58 1
61 59 60 1
62 60 61 1
63 60 63 1
64 61 62 2
65 61 67 1
66 63 64 1
67 63 65 1
68 64 66 1
69 67 68 1
70 68 69 1
71 68 71 1
72 69 70 2
73 72 73 1
74 73 74 1
75 73 76 1
76 74 75 2
77 76 77 1
78 77 78 2
79 77 79 1
80 78 80 1
81 79 81 2
82 80 82 2
83 81 82 1
84 82 83 1
85 84 85 1
86 85 86 1
87 85 88 1
88 86 87 2
89 89 90 1
90 90 91 1
91 90 93 1
92 91 92 2
93 91 101 1
94 93 94 1
95 94 95 2
96 94 96 1
97 95 97 1
98 96 98 2
99 97 99 2
100 98 99 1
101 99 100 1
102 101 102 1
103 102 103 1
104 102 105 1
105 103 104 2
106 105 106 1
107 106 107 1
108 106 108 2
109 109 110 1
110 110 111 1
111 110 113 1
112 111 112 2
113 113 114 1
114 114 115 2
115 114 116 1
116 115 117 1
117 116 118 2
118 117 119 2
119 118 119 1
120 119 120 1
@<TRIPOS>SUBSTRUCTURE
1	SER153	1	RESIDUE	1 B	SER
2	ALA154	7	RESIDUE	1 B	ALA
3	PHE155	12	RESIDUE	1 B	PHE
4	PHE156	23	RESIDUE	1 B	PHE
5	PHE158	34	RESIDUE	1 B	PHE
6	PRO159	45	RESIDUE	1 B	PRO
7	VAL160	52	RESIDUE	1 B	VAL
8	ILE164	59	RESIDUE	1 B	ILE
9	ALA165	67	RESIDUE	1 B	ALA
10	TYR168	72	RESIDUE	1 B	TYR
11	ALA207	84	RESIDUE	1 B	ALA
12	TYR210	89	RESIDUE	1 B	TYR
13	ASN211	101	RESIDUE	1 B	ASN
14	TYR217	109	RESIDUE	1 B	TYR
