# created with PyMOL 2.5.2
@<TRIPOS>MOLECULE
BRD7_5MQ1_TargetProtein
120 120 14              
SMALL
USER_CHARGES
@<TRIPOS>ATOM
1	   N	18.306	148.919	36.015	N.am	1	SER153	0.000	
2	  CA	18.637	150.090	36.845	C.3	1	SER153	0.000	
3	   C	19.027	149.768	38.293	C.2	1	SER153	0.000	
4	   O	19.418	150.682	39.044	O.2	1	SER153	0.000	
5	  CB	17.497	151.120	36.796	C.3	1	SER153	0.000	
6	  OG	17.178	151.532	35.461	O.3	1	SER153	0.000	
7	   N	18.822	148.515	38.719	N.am	2	ALA154	0.000	
8	  CA	19.141	148.098	40.084	C.3	2	ALA154	0.000	
9	   C	18.350	148.872	41.147	C.2	2	ALA154	0.000	
10	   O	18.828	149.094	42.290	O.2	2	ALA154	0.000	
11	  CB	20.649	148.186	40.356	C.3	2	ALA154	0.000	
12	   N	17.118	149.255	40.812	N.am	3	PHE155	0.000	
13	  CA	16.278	149.946	41.771	C.3	3	PHE155	0.000	
14	   C	15.773	148.984	42.897	C.2	3	PHE155	0.000	
15	   O	15.401	149.438	43.972	O.2	3	PHE155	0.000	
16	  CB	15.078	150.601	41.109	C.3	3	PHE155	0.000	
17	  CG	15.347	151.774	40.195	C.2	3	PHE155	0.000	
18	 CD1	16.502	152.562	40.260	C.2	3	PHE155	0.000	
19	 CD2	14.383	152.159	39.278	C.2	3	PHE155	0.000	
20	 CE1	16.679	153.635	39.398	C.2	3	PHE155	0.000	
21	 CE2	14.570	153.229	38.417	C.2	3	PHE155	0.000	
22	  CZ	15.707	153.994	38.512	C.2	3	PHE155	0.000	
23	   N	15.729	147.672	42.629	N.am	4	PHE156	0.000	
24	  CA	15.098	146.695	43.532	C.3	4	PHE156	0.000	
25	   C	16.150	145.706	44.127	C.2	4	PHE156	0.000	
26	   O	15.779	144.759	44.834	O.2	4	PHE156	0.000	
27	  CB	13.960	145.958	42.794	C.3	4	PHE156	0.000	
28	  CG	12.897	146.874	42.344	C.2	4	PHE156	0.000	
29	 CD1	11.894	147.264	43.246	C.2	4	PHE156	0.000	
30	 CD2	12.927	147.445	41.061	C.2	4	PHE156	0.000	
31	 CE1	10.926	148.161	42.870	C.2	4	PHE156	0.000	
32	 CE2	11.915	148.349	40.715	C.2	4	PHE156	0.000	
33	  CZ	10.935	148.688	41.620	C.2	4	PHE156	0.000	
34	   N	18.488	146.132	46.615	N.am	5	PHE158	0.000	
35	  CA	18.740	146.269	48.078	C.3	5	PHE158	0.000	
36	   C	17.620	147.044	48.777	C.2	5	PHE158	0.000	
37	   O	16.806	147.704	48.103	O.2	5	PHE158	0.000	
38	  CB	20.125	146.952	48.304	C.3	5	PHE158	0.000	
39	  CG	21.277	146.110	47.818	C.2	5	PHE158	0.000	
40	 CD1	21.696	145.014	48.572	C.2	5	PHE158	0.000	
41	 CD2	21.917	146.375	46.611	C.2	5	PHE158	0.000	
42	 CE1	22.760	144.216	48.129	C.2	5	PHE158	0.000	
43	 CE2	22.967	145.570	46.168	C.2	5	PHE158	0.000	
44	  CZ	23.336	144.498	46.921	C.2	5	PHE158	0.000	
45	   N	17.543	146.972	50.120	N.am	6	PRO159	0.000	
46	  CA	16.450	147.678	50.808	C.3	6	PRO159	0.000	
47	   C	16.464	149.197	50.584	C.2	6	PRO159	0.000	
48	   O	17.555	149.835	50.503	O.2	6	PRO159	0.000	
49	  CB	16.701	147.349	52.285	C.3	6	PRO159	0.000	
50	  CG	17.448	146.068	52.260	C.3	6	PRO159	0.000	
51	  CD	18.338	146.151	51.061	C.3	6	PRO159	0.000	
52	   N	15.284	149.772	50.415	N.am	7	VAL160	0.000	
53	  CA	15.136	151.251	50.347	C.3	7	VAL160	0.000	
54	   C	15.283	151.890	51.722	C.2	7	VAL160	0.000	
55	   O	14.497	151.615	52.622	O.2	7	VAL160	0.000	
56	  CB	13.742	151.641	49.808	C.3	7	VAL160	0.000	
57	 CG1	13.608	153.152	49.675	C.3	7	VAL160	0.000	
58	 CG2	13.461	150.960	48.435	C.3	7	VAL160	0.000	
59	   N	17.688	157.510	51.087	N.am	8	ILE164	0.000	
60	  CA	17.373	157.655	49.651	C.3	8	ILE164	0.000	
61	   C	15.921	158.022	49.374	C.2	8	ILE164	0.000	
62	   O	15.646	158.664	48.336	O.2	8	ILE164	0.000	
63	  CB	17.798	156.472	48.826	C.3	8	ILE164	0.000	
64	 CG1	18.095	156.915	47.397	C.3	8	ILE164	0.000	
65	 CG2	16.745	155.412	48.807	C.3	8	ILE164	0.000	
66	 CD1	18.827	155.912	46.573	C.3	8	ILE164	0.000	
67	   N	15.026	157.705	50.304	N.am	9	ALA165	0.000	
68	  CA	13.598	157.934	50.154	C.3	9	ALA165	0.000	
69	   C	12.992	158.469	51.447	C.2	9	ALA165	0.000	
70	   O	12.604	157.696	52.338	O.2	9	ALA165	0.000	
71	  CB	12.892	156.604	49.722	C.3	9	ALA165	0.000	
72	   N	10.295	156.826	54.128	N.am	10	TYR168	0.000	
73	  CA	9.879	155.458	53.602	C.3	10	TYR168	0.000	
74	   C	9.350	154.552	54.691	C.2	10	TYR168	0.000	
75	   O	8.234	153.954	54.529	O.2	10	TYR168	0.000	
76	  CB	11.031	154.799	52.845	C.3	10	TYR168	0.000	
77	  CG	10.611	153.613	51.990	C.2	10	TYR168	0.000	
78	 CD1	10.130	153.853	50.699	C.2	10	TYR168	0.000	
79	 CD2	10.715	152.308	52.454	C.2	10	TYR168	0.000	
80	 CE1	9.721	152.782	49.881	C.2	10	TYR168	0.000	
81	 CE2	10.333	151.231	51.661	C.2	10	TYR168	0.000	
82	  CZ	9.864	151.481	50.384	C.2	10	TYR168	0.000	
83	  OH	9.450	150.382	49.579	O.3	10	TYR168	0.000	
84	   N	6.368	149.898	45.928	N.am	11	ALA207	0.000	
85	  CA	6.819	151.075	45.136	C.3	11	ALA207	0.000	
86	   C	5.610	151.860	44.608	C.2	11	ALA207	0.000	
87	   O	5.700	153.108	44.490	O.2	11	ALA207	0.000	
88	  CB	7.726	150.684	43.989	C.3	11	ALA207	0.000	
89	   N	4.236	153.942	47.883	N.am	12	TYR210	0.000	
90	  CA	5.093	155.057	48.313	C.3	12	TYR210	0.000	
91	   C	5.256	156.162	47.251	C.2	12	TYR210	0.000	
92	   O	5.269	157.380	47.618	O.2	12	TYR210	0.000	
93	  CB	6.445	154.551	48.793	C.3	12	TYR210	0.000	
94	  CG	7.440	155.688	49.130	C.2	12	TYR210	0.000	
95	 CD1	7.407	156.314	50.366	C.2	12	TYR210	0.000	
96	 CD2	8.375	156.138	48.207	C.2	12	TYR210	0.000	
97	 CE1	8.308	157.343	50.676	C.2	12	TYR210	0.000	
98	 CE2	9.272	157.187	48.514	C.2	12	TYR210	0.000	
99	  CZ	9.233	157.738	49.775	C.2	12	TYR210	0.000	
100	  OH	10.122	158.792	50.025	O.3	12	TYR210	0.000	
101	   N	5.453	155.794	45.988	N.am	13	ASN211	0.000	
102	  CA	5.736	156.759	44.884	C.3	13	ASN211	0.000	
103	   C	4.430	157.128	44.155	C.2	13	ASN211	0.000	
104	   O	3.578	156.264	43.958	O.2	13	ASN211	0.000	
105	  CB	6.717	156.143	43.891	C.3	13	ASN211	0.000	
106	  CG	8.037	155.731	44.526	C.2	13	ASN211	0.000	
107	 ND2	8.200	154.433	44.803	N.pl3	13	ASN211	0.000	
108	 OD1	8.903	156.590	44.791	O.2	13	ASN211	0.000	
109	   N	9.903	155.671	39.655	N.am	14	TYR217	0.000	
110	  CA	9.866	154.449	40.485	C.3	14	TYR217	0.000	
111	   C	8.547	153.694	40.391	C.2	14	TYR217	0.000	
112	   O	8.550	152.445	40.319	O.2	14	TYR217	0.000	
113	  CB	10.213	154.773	41.934	C.3	14	TYR217	0.000	
114	  CG	11.577	155.425	42.040	C.2	14	TYR217	0.000	
115	 CD1	12.762	154.731	41.661	C.2	14	TYR217	0.000	
116	 CD2	11.681	156.737	42.458	C.2	14	TYR217	0.000	
117	 CE1	13.966	155.396	41.683	C.2	14	TYR217	0.000	
118	 CE2	12.902	157.383	42.520	C.2	14	TYR217	0.000	
119	  CZ	14.041	156.686	42.127	C.2	14	TYR217	0.000	
120	  OH	15.314	157.313	42.160	O.3	14	TYR217	0.000	
@<TRIPOS>BOND
1 1 2 1
2 2 3 1
3 2 5 1
4 3 4 2
5 3 7 1
6 5 6 1
7 7 8 1
8 8 9 1
9 8 11 1
10 9 10 2
11 9 12 1
12 12 13 1
13 13 14 1
14 13 16 1
15 14 15 2
16 14 23 1
17 16 17 1
18 17 18 2
19 17 19 1
20 18 20 1
21 19 21 2
22 20 22 2
23 21 22 1
24 23 24 1
25 24 25 1
26 24 27 1
27 25 26 2
28 27 28 1
29 28 29 2
30 28 30 1
31 29 31 1
32 30 32 2
33 31 33 2
34 32 33 1
35 34 35 1
36 35 36 1
37 35 38 1
38 36 37 2
39 36 45 1
40 38 39 1
41 39 40 2
42 39 41 1
43 40 42 1
44 41 43 2
45 42 44 2
46 43 44 1
47 45 46 1
48 45 51 1
49 46 47 1
50 46 49 1
51 47 48 2
52 47 52 1
53 49 50 1
54 50 51 1
55 52 53 1
56 53 54 1
57 53 56 1
58 54 55 2
59 56 57 1
60 56 58 1
61 59 60 1
62 60 61 1
63 60 63 1
64 61 62 2
65 61 67 1
66 63 64 1
67 63 65 1
68 64 66 1
69 67 68 1
70 68 69 1
71 68 71 1
72 69 70 2
73 72 73 1
74 73 74 1
75 73 76 1
76 74 75 2
77 76 77 1
78 77 78 2
79 77 79 1
80 78 80 1
81 79 81 2
82 80 82 2
83 81 82 1
84 82 83 1
85 84 85 1
86 85 86 1
87 85 88 1
88 86 87 2
89 89 90 1
90 90 91 1
91 90 93 1
92 91 92 2
93 91 101 1
94 93 94 1
95 94 95 2
96 94 96 1
97 95 97 1
98 96 98 2
99 97 99 2
100 98 99 1
101 99 100 1
102 101 102 1
103 102 103 1
104 102 105 1
105 103 104 2
106 105 106 1
107 106 107 1
108 106 108 2
109 109 110 1
110 110 111 1
111 110 113 1
112 111 112 2
113 113 114 1
114 114 115 2
115 114 116 1
116 115 117 1
117 116 118 2
118 117 119 2
119 118 119 1
120 119 120 1
@<TRIPOS>SUBSTRUCTURE
1	SER153	1	RESIDUE	1 B	SER
2	ALA154	7	RESIDUE	1 B	ALA
3	PHE155	12	RESIDUE	1 B	PHE
4	PHE156	23	RESIDUE	1 B	PHE
5	PHE158	34	RESIDUE	1 B	PHE
6	PRO159	45	RESIDUE	1 B	PRO
7	VAL160	52	RESIDUE	1 B	VAL
8	ILE164	59	RESIDUE	1 B	ILE
9	ALA165	67	RESIDUE	1 B	ALA
10	TYR168	72	RESIDUE	1 B	TYR
11	ALA207	84	RESIDUE	1 B	ALA
12	TYR210	89	RESIDUE	1 B	TYR
13	ASN211	101	RESIDUE	1 B	ASN
14	TYR217	109	RESIDUE	1 B	TYR
