# created with PyMOL 2.5.2
@<TRIPOS>MOLECULE
BTK_5P9L_TargetProtein
127 120 17              
SMALL
USER_CHARGES
@<TRIPOS>ATOM
1	   N	-25.913	1.610	0.457	N.am	1	LEU408	0.000	
2	  CA	-25.374	2.919	0.885	C.3	1	LEU408	0.000	
3	   C	-26.248	4.086	0.459	C.2	1	LEU408	0.000	
4	   O	-26.180	5.157	1.041	O.2	1	LEU408	0.000	
5	  CB	-23.949	3.138	0.350	C.3	1	LEU408	0.000	
6	  CG	-22.961	2.110	0.891	C.3	1	LEU408	0.000	
7	 CD1	-21.596	2.315	0.272	C.3	1	LEU408	0.000	
8	 CD2	-22.895	2.100	2.444	C.3	1	LEU408	0.000	
9	   N	-27.053	3.907	-0.566	N.am	2	GLY409	0.000	
10	  CA	-27.874	4.995	-1.061	C.3	2	GLY409	0.000	
11	   C	-28.052	4.865	-2.553	C.2	2	GLY409	0.000	
12	   O	-27.662	3.857	-3.129	O.2	2	GLY409	0.000	
13	   N	-25.874	2.334	-4.882	N.am	3	VAL416	0.000	
14	  CA	-24.522	2.074	-4.454	C.3	3	VAL416	0.000	
15	   C	-24.552	1.170	-3.203	C.2	3	VAL416	0.000	
16	   O	-25.295	1.417	-2.231	O.2	3	VAL416	0.000	
17	  CB	-23.726	3.378	-4.143	C.3	3	VAL416	0.000	
18	 CG1	-22.274	3.021	-3.706	C.3	3	VAL416	0.000	
19	 CG2	-23.720	4.327	-5.342	C.3	3	VAL416	0.000	
20	   N	-16.780	-0.065	-2.670	N.am	4	ALA428	0.000	
21	  CA	-18.083	0.442	-3.023	C.3	4	ALA428	0.000	
22	   C	-18.413	0.039	-4.428	C.2	4	ALA428	0.000	
23	   O	-17.563	0.059	-5.340	O.2	4	ALA428	0.000	
24	  CB	-18.133	1.980	-2.880	C.3	4	ALA428	0.000	
25	   N	-21.040	0.670	-7.449	N.am	5	LYS430	0.000	
26	  CA	-22.023	1.563	-8.049	C.3	5	LYS430	0.000	
27	   C	-22.714	0.830	-9.167	C.2	5	LYS430	0.000	
28	   O	-22.068	0.479	-10.142	O.2	5	LYS430	0.000	
29	  CB	-21.343	2.828	-8.603	C.3	5	LYS430	0.000	
30	  CG	-20.503	3.516	-7.525	C.3	5	LYS430	0.000	
31	  CD	-20.138	4.942	-7.941	C.3	5	LYS430	0.000	
32	  CE	-19.228	5.600	-6.902	C.3	5	LYS430	0.000	
33	  NZ	-19.139	7.058	-7.141	N.4	5	LYS430	0.000	
34	   N	-15.150	1.042	-6.680	N.am	6	THR474	0.000	
35	  CA	-14.240	2.056	-6.129	C.3	6	THR474	0.000	
36	   C	-13.916	1.843	-4.672	C.2	6	THR474	0.000	
37	   O	-14.501	0.970	-3.972	O.2	6	THR474	0.000	
38	  CB	-14.751	3.519	-6.270	C.3	6	THR474	0.000	
39	 CG2	-15.160	3.807	-7.654	C.3	6	THR474	0.000	
40	 OG1	-15.851	3.758	-5.374	O.3	6	THR474	0.000	
41	   N	-12.951	2.619	-4.189	N.am	7	GLU475	0.000	
42	  CA	-12.610	2.689	-2.776	C.3	7	GLU475	0.000	
43	   C	-13.858	2.987	-1.945	C.2	7	GLU475	0.000	
44	   O	-14.693	3.853	-2.315	O.2	7	GLU475	0.000	
45	  CB	-11.550	3.813	-2.641	C.3	7	GLU475	0.000	
46	  CG	-11.069	4.093	-1.269	C.3	7	GLU475	0.000	
47	  CD	-9.910	5.110	-1.239	C.2	7	GLU475	0.000	
48	 OE1	-9.521	5.608	-2.322	O.co2	7	GLU475	0.000	
49	 OE2	-9.417	5.380	-0.102	O.co2	7	GLU475	0.000	
50	   N	-13.959	2.305	-0.824	N.am	8	TYR476	0.000	
51	  CA	-15.021	2.470	0.139	C.3	8	TYR476	0.000	
52	   C	-14.639	3.549	1.179	C.2	8	TYR476	0.000	
53	   O	-13.532	3.523	1.673	O.2	8	TYR476	0.000	
54	  CB	-15.269	1.178	0.903	C.3	8	TYR476	0.000	
55	  CG	-16.327	1.288	1.978	C.2	8	TYR476	0.000	
56	 CD1	-17.636	1.666	1.708	C.2	8	TYR476	0.000	
57	 CD2	-16.013	0.950	3.284	C.2	8	TYR476	0.000	
58	 CE1	-18.576	1.802	2.751	C.2	8	TYR476	0.000	
59	 CE2	-16.958	1.026	4.297	C.2	8	TYR476	0.000	
60	  CZ	-18.218	1.463	4.014	C.2	8	TYR476	0.000	
61	  OH	-19.178	1.508	5.019	O.3	8	TYR476	0.000	
62	   N	-15.580	4.441	1.471	N.am	9	MET477	0.000	
63	  CA	-15.335	5.597	2.338	C.3	9	MET477	0.000	
64	   C	-16.376	5.530	3.465	C.2	9	MET477	0.000	
65	   O	-17.548	5.857	3.281	O.2	9	MET477	0.000	
66	  CB	-15.430	6.891	1.553	C.3	9	MET477	0.000	
67	  CG	-14.427	6.981	0.422	C.3	9	MET477	0.000	
68	  SD	-12.744	7.211	0.899	S.3	9	MET477	0.000	
69	  CE	-12.799	8.879	1.444	C.3	9	MET477	0.000	
70	   N	-15.970	5.013	4.605	N.am	10	ALA478	0.000	
71	  CA	-16.913	4.606	5.628	C.3	10	ALA478	0.000	
72	   C	-17.765	5.714	6.175	C.2	10	ALA478	0.000	
73	   O	-18.851	5.448	6.663	O.2	10	ALA478	0.000	
74	  CB	-16.188	3.870	6.821	C.3	10	ALA478	0.000	
75	   N	-17.288	6.966	6.169	N.am	11	ASN479	0.000	
76	  CA	-18.051	8.057	6.803	C.3	11	ASN479	0.000	
77	   C	-18.915	8.808	5.829	C.2	11	ASN479	0.000	
78	   O	-19.478	9.854	6.239	O.2	11	ASN479	0.000	
79	  CB	-17.149	8.949	7.667	C.3	11	ASN479	0.000	
80	  CG	-16.784	8.249	8.950	C.2	11	ASN479	0.000	
81	 ND2	-15.746	8.654	9.633	N.pl3	11	ASN479	0.000	
82	 OD1	-17.472	7.295	9.307	O.2	11	ASN479	0.000	
83	   N	-19.015	8.352	4.593	N.am	12	GLY480	0.000	
84	  CA	-20.012	8.840	3.672	C.3	12	GLY480	0.000	
85	   C	-19.726	10.184	3.058	C.2	12	GLY480	0.000	
86	   O	-18.567	10.643	2.951	O.2	12	GLY480	0.000	
87	   N	-20.712	10.841	2.518	N.am	13	CYS481	0.000	
88	  CA	-20.587	12.052	1.760	C.3	13	CYS481	0.000	
89	   C	-20.270	13.278	2.634	C.2	13	CYS481	0.000	
90	   O	-20.782	13.463	3.734	O.2	13	CYS481	0.000	
91	  CB	-21.772	12.252	0.835	C.3	13	CYS481	0.000	
92	  SG	-22.999	13.324	1.377	S.3	13	CYS481	0.000	
93	   N	-20.968	16.410	2.393	N.am	14	LEU483	0.000	
94	  CA	-22.049	17.381	2.651	C.3	14	LEU483	0.000	
95	   C	-22.836	16.973	3.861	C.2	14	LEU483	0.000	
96	   O	-23.105	17.792	4.718	O.2	14	LEU483	0.000	
97	  CB	-22.892	17.569	1.362	C.3	14	LEU483	0.000	
98	  CG	-24.043	18.542	1.444	C.3	14	LEU483	0.000	
99	 CD1	-23.581	19.969	1.713	C.3	14	LEU483	0.000	
100	 CD2	-24.858	18.467	0.131	C.3	14	LEU483	0.000	
101	   N	-23.158	15.689	3.948	N.am	15	ASN484	0.000	
102	  CA	-23.881	15.220	5.053	C.3	15	ASN484	0.000	
103	   C	-23.059	15.258	6.364	C.2	15	ASN484	0.000	
104	   O	-23.536	15.557	7.469	O.2	15	ASN484	0.000	
105	  CB	-24.349	13.764	4.836	C.3	15	ASN484	0.000	
106	  CG	-25.319	13.616	3.688	C.2	15	ASN484	0.000	
107	 ND2	-25.378	12.430	3.154	N.pl3	15	ASN484	0.000	
108	 OD1	-26.005	14.545	3.299	O.2	15	ASN484	0.000	
109	   N	-20.925	17.637	-2.293	N.am	16	ARG525	0.000	
110	  CA	-21.669	16.438	-2.565	C.3	16	ARG525	0.000	
111	   C	-20.902	15.364	-3.315	C.2	16	ARG525	0.000	
112	   O	-21.361	14.247	-3.338	O.2	16	ARG525	0.000	
113	  CB	-22.956	16.744	-3.330	C.3	16	ARG525	0.000	
114	  CG	-22.673	17.290	-4.698	C.3	16	ARG525	0.000	
115	  CD	-23.894	17.573	-5.569	C.3	16	ARG525	0.000	
116	  NE	-23.464	18.251	-6.818	N.pl3	16	ARG525	0.000	
117	  CZ	-23.201	19.556	-6.929	C.cat	16	ARG525	0.000	
118	 NH1	-23.411	20.381	-5.902	N.pl3	16	ARG525	0.000	
119	 NH2	-22.805	20.075	-8.077	N.pl3	16	ARG525	0.000	
120	   N	-16.066	12.518	-0.327	N.am	17	LEU528	0.000	
121	  CA	-16.374	11.448	0.615	C.3	17	LEU528	0.000	
122	   C	-15.388	11.526	1.771	C.2	17	LEU528	0.000	
123	   O	-14.288	12.095	1.637	O.2	17	LEU528	0.000	
124	  CB	-16.325	10.082	-0.108	C.3	17	LEU528	0.000	
125	  CG	-17.427	9.866	-1.173	C.3	17	LEU528	0.000	
126	 CD1	-17.122	8.680	-2.076	C.3	17	LEU528	0.000	
127	 CD2	-18.801	9.523	-0.511	C.3	17	LEU528	0.000	
@<TRIPOS>BOND
1 1 2 1
2 2 3 1
3 2 5 1
4 3 4 2
5 3 9 1
6 5 6 1
7 6 7 1
8 6 8 1
9 9 10 1
10 10 11 1
11 11 12 2
12 13 14 1
13 14 15 1
14 14 17 1
15 15 16 2
16 17 18 1
17 17 19 1
18 20 21 1
19 21 22 1
20 21 24 1
21 22 23 2
22 25 26 1
23 26 27 1
24 26 29 1
25 27 28 2
26 29 30 1
27 30 31 1
28 31 32 1
29 32 33 1
30 34 35 1
31 35 36 1
32 35 38 1
33 36 37 2
34 36 41 1
35 38 39 1
36 38 40 1
37 41 42 1
38 42 43 1
39 42 45 1
40 43 44 2
41 43 50 1
42 45 46 1
43 46 47 1
44 47 48 2
45 47 49 1
46 50 51 1
47 51 52 1
48 51 54 1
49 52 53 2
50 52 62 1
51 54 55 1
52 55 56 2
53 55 57 1
54 56 58 1
55 57 59 2
56 58 60 2
57 59 60 1
58 60 61 1
59 62 63 1
60 63 64 1
61 63 66 1
62 64 65 2
63 64 70 1
64 66 67 1
65 67 68 1
66 68 69 1
67 70 71 1
68 71 72 1
69 71 74 1
70 72 73 2
71 72 75 1
72 75 76 1
73 76 77 1
74 76 79 1
75 77 78 2
76 77 83 1
77 79 80 1
78 80 81 1
79 80 82 2
80 83 84 1
81 84 85 1
82 85 86 2
83 85 87 1
84 87 88 1
85 88 89 1
86 88 91 1
87 89 90 2
88 91 92 1
89 93 94 1
90 94 95 1
91 94 97 1
92 95 96 2
93 95 101 1
94 97 98 1
95 98 99 1
96 98 100 1
97 101 102 1
98 102 103 1
99 102 105 1
100 103 104 2
101 105 106 1
102 106 107 1
103 106 108 2
104 109 110 1
105 110 111 1
106 110 113 1
107 111 112 2
108 113 114 1
109 114 115 1
110 115 116 1
111 116 117 1
112 117 118 2
113 117 119 1
114 120 121 1
115 121 122 1
116 121 124 1
117 122 123 2
118 124 125 1
119 125 126 1
120 125 127 1
@<TRIPOS>SUBSTRUCTURE
1	LEU408	1	RESIDUE	1 B	LEU
2	GLY409	9	RESIDUE	1 B	GLY
3	VAL416	13	RESIDUE	1 B	VAL
4	ALA428	20	RESIDUE	1 B	ALA
5	LYS430	25	RESIDUE	1 B	LYS
6	THR474	34	RESIDUE	1 B	THR
7	GLU475	41	RESIDUE	1 B	GLU
8	TYR476	50	RESIDUE	1 B	TYR
9	MET477	62	RESIDUE	1 B	MET
10	ALA478	70	RESIDUE	1 B	ALA
11	ASN479	75	RESIDUE	1 B	ASN
12	GLY480	83	RESIDUE	1 B	GLY
13	CYS481	87	RESIDUE	1 B	CYS
14	LEU483	93	RESIDUE	1 B	LEU
15	ASN484	101	RESIDUE	1 B	ASN
16	ARG525	109	RESIDUE	1 B	ARG
17	LEU528	120	RESIDUE	1 B	LEU
