# created with PyMOL 2.5.2
@<TRIPOS>MOLECULE
GCN5_5MLJ_TargetProtein
128 129 14              
SMALL
USER_CHARGES
@<TRIPOS>ATOM
1	   N	-10.429	-8.295	7.585	N.am	1	TRP751	0.000	
2	  CA	-10.414	-8.159	9.053	C.3	1	TRP751	0.000	
3	   C	-11.776	-7.905	9.728	C.2	1	TRP751	0.000	
4	   O	-12.025	-8.459	10.793	O.2	1	TRP751	0.000	
5	  CB	-9.349	-7.139	9.532	C.3	1	TRP751	0.000	
6	  CG	-9.622	-5.695	9.210	C.2	1	TRP751	0.000	
7	 CD1	-9.163	-4.995	8.138	C.2	1	TRP751	0.000	
8	 CD2	-10.412	-4.779	9.975	C.2	1	TRP751	0.000	
9	 CE2	-10.389	-3.543	9.300	C.2	1	TRP751	0.000	
10	 CE3	-11.137	-4.883	11.166	C.2	1	TRP751	0.000	
11	 NE1	-9.620	-3.704	8.179	N.pl3	1	TRP751	0.000	
12	 CZ2	-11.068	-2.419	9.773	C.2	1	TRP751	0.000	
13	 CZ3	-11.809	-3.766	11.638	C.2	1	TRP751	0.000	
14	 CH2	-11.769	-2.550	10.942	C.2	1	TRP751	0.000	
15	   N	-12.669	-7.097	9.118	N.am	2	PRO752	0.000	
16	  CA	-13.948	-6.888	9.817	C.3	2	PRO752	0.000	
17	   C	-14.859	-8.121	9.836	C.2	2	PRO752	0.000	
18	   O	-15.775	-8.199	10.658	O.2	2	PRO752	0.000	
19	  CB	-14.617	-5.761	9.006	C.3	2	PRO752	0.000	
20	  CG	-13.527	-5.160	8.187	C.3	2	PRO752	0.000	
21	  CD	-12.616	-6.310	7.875	C.3	2	PRO752	0.000	
22	   N	-14.589	-9.079	8.952	N.am	3	PHE753	0.000	
23	  CA	-15.509	-10.180	8.683	C.3	3	PHE753	0.000	
24	   C	-14.978	-11.534	9.149	C.2	3	PHE753	0.000	
25	   O	-15.550	-12.569	8.821	O.2	3	PHE753	0.000	
26	  CB	-15.779	-10.217	7.178	C.3	3	PHE753	0.000	
27	  CG	-16.071	-8.865	6.596	C.2	3	PHE753	0.000	
28	 CD1	-17.259	-8.214	6.900	C.2	3	PHE753	0.000	
29	 CD2	-15.147	-8.223	5.775	C.2	3	PHE753	0.000	
30	 CE1	-17.533	-6.961	6.383	C.2	3	PHE753	0.000	
31	 CE2	-15.415	-6.967	5.260	C.2	3	PHE753	0.000	
32	  CZ	-16.611	-6.337	5.562	C.2	3	PHE753	0.000	
33	   N	-14.739	-12.850	12.229	N.am	4	GLU755	0.000	
34	  CA	-15.545	-13.464	13.274	C.3	4	GLU755	0.000	
35	   C	-16.911	-12.784	13.376	C.2	4	GLU755	0.000	
36	   O	-17.075	-11.660	12.904	O.2	4	GLU755	0.000	
37	  CB	-14.813	-13.356	14.610	C.3	4	GLU755	0.000	
38	  CG	-13.504	-14.117	14.636	C.3	4	GLU755	0.000	
39	  CD	-12.867	-14.097	16.004	C.2	4	GLU755	0.000	
40	 OE1	-12.629	-12.984	16.517	O.co2	4	GLU755	0.000	
41	 OE2	-12.613	-15.186	16.561	O.co2	4	GLU755	0.000	
42	   N	-17.892	-13.457	14.004	N.am	5	PRO756	0.000	
43	  CA	-19.242	-12.886	14.052	C.3	5	PRO756	0.000	
44	   C	-19.309	-11.528	14.737	C.2	5	PRO756	0.000	
45	   O	-18.552	-11.269	15.674	O.2	5	PRO756	0.000	
46	  CB	-20.044	-13.915	14.859	C.3	5	PRO756	0.000	
47	  CG	-19.261	-15.173	14.810	C.3	5	PRO756	0.000	
48	  CD	-17.824	-14.772	14.668	C.3	5	PRO756	0.000	
49	   N	-20.223	-10.679	14.271	N.am	6	VAL757	0.000	
50	  CA	-20.461	-9.379	14.892	C.3	6	VAL757	0.000	
51	   C	-20.887	-9.605	16.342	C.2	6	VAL757	0.000	
52	   O	-21.683	-10.495	16.627	O.2	6	VAL757	0.000	
53	  CB	-21.545	-8.580	14.127	C.3	6	VAL757	0.000	
54	 CG1	-21.932	-7.306	14.870	C.3	6	VAL757	0.000	
55	 CG2	-21.053	-8.238	12.724	C.3	6	VAL757	0.000	
56	   N	-20.330	-8.819	17.256	N.am	7	LYS758	0.000	
57	  CA	-20.658	-8.942	18.674	C.3	7	LYS758	0.000	
58	   C	-21.759	-7.959	19.044	C.2	7	LYS758	0.000	
59	   O	-21.824	-6.861	18.501	O.2	7	LYS758	0.000	
60	  CB	-19.418	-8.702	19.533	C.3	7	LYS758	0.000	
61	  CG	-18.356	-9.775	19.357	C.3	7	LYS758	0.000	
62	  CD	-17.276	-9.707	20.424	C.3	7	LYS758	0.000	
63	  CE	-16.332	-8.539	20.203	C.3	7	LYS758	0.000	
64	  NZ	-15.064	-8.717	20.968	N.4	7	LYS758	0.000	
65	   N	-20.696	-4.528	19.962	N.am	8	GLU761	0.000	
66	  CA	-20.398	-3.671	18.815	C.3	8	GLU761	0.000	
67	   C	-21.663	-3.086	18.195	C.2	8	GLU761	0.000	
68	   O	-21.678	-1.928	17.770	O.2	8	GLU761	0.000	
69	  CB	-19.636	-4.466	17.751	C.3	8	GLU761	0.000	
70	  CG	-18.284	-4.983	18.222	C.3	8	GLU761	0.000	
71	  CD	-17.663	-5.995	17.283	C.2	8	GLU761	0.000	
72	 OE1	-18.411	-6.713	16.579	O.co2	8	GLU761	0.000	
73	 OE2	-16.416	-6.087	17.264	O.co2	8	GLU761	0.000	
74	   N	-22.714	-3.900	18.141	N.am	9	ALA762	0.000	
75	  CA	-23.963	-3.541	17.474	C.3	9	ALA762	0.000	
76	   C	-25.108	-4.301	18.147	C.2	9	ALA762	0.000	
77	   O	-25.433	-5.415	17.751	O.2	9	ALA762	0.000	
78	  CB	-23.875	-3.887	15.994	C.3	9	ALA762	0.000	
79	   N	-27.942	-5.965	16.122	N.am	10	TYR765	0.000	
80	  CA	-27.509	-6.615	14.879	C.3	10	TYR765	0.000	
81	   C	-28.295	-7.884	14.557	C.2	10	TYR765	0.000	
82	   O	-28.698	-8.093	13.413	O.2	10	TYR765	0.000	
83	  CB	-26.016	-6.955	14.931	C.3	10	TYR765	0.000	
84	  CG	-25.456	-7.355	13.584	C.2	10	TYR765	0.000	
85	 CD1	-25.074	-6.390	12.660	C.2	10	TYR765	0.000	
86	 CD2	-25.331	-8.695	13.225	C.2	10	TYR765	0.000	
87	 CE1	-24.568	-6.744	11.421	C.2	10	TYR765	0.000	
88	 CE2	-24.829	-9.060	11.985	C.2	10	TYR765	0.000	
89	  CZ	-24.446	-8.080	11.088	C.2	10	TYR765	0.000	
90	  OH	-23.950	-8.428	9.853	O.3	10	TYR765	0.000	
91	   N	-23.252	-6.463	5.435	N.am	11	CYS804	0.000	
92	  CA	-22.472	-5.275	5.762	C.3	11	CYS804	0.000	
93	   C	-23.086	-4.022	5.137	C.2	11	CYS804	0.000	
94	   O	-23.196	-2.989	5.796	O.2	11	CYS804	0.000	
95	  CB	-21.023	-5.447	5.300	C.3	11	CYS804	0.000	
96	  SG	-19.926	-4.074	5.720	S.3	11	CYS804	0.000	
97	   N	-26.566	-3.176	6.937	N.am	12	TYR807	0.000	
98	  CA	-26.494	-2.672	8.311	C.3	12	TYR807	0.000	
99	   C	-25.741	-1.353	8.462	C.2	12	TYR807	0.000	
100	   O	-26.150	-0.493	9.245	O.2	12	TYR807	0.000	
101	  CB	-25.869	-3.705	9.257	C.3	12	TYR807	0.000	
102	  CG	-26.063	-3.306	10.702	C.2	12	TYR807	0.000	
103	 CD1	-27.248	-3.594	11.363	C.2	12	TYR807	0.000	
104	 CD2	-25.087	-2.582	11.386	C.2	12	TYR807	0.000	
105	 CE1	-27.450	-3.206	12.679	C.2	12	TYR807	0.000	
106	 CE2	-25.280	-2.184	12.700	C.2	12	TYR807	0.000	
107	  CZ	-26.464	-2.498	13.341	C.2	12	TYR807	0.000	
108	  OH	-26.671	-2.109	14.649	O.3	12	TYR807	0.000	
109	   N	-24.631	-1.207	7.744	N.am	13	ASN808	0.000	
110	  CA	-23.726	-0.080	7.951	C.3	13	ASN808	0.000	
111	   C	-23.982	1.076	6.996	C.2	13	ASN808	0.000	
112	   O	-24.590	0.885	5.938	O.2	13	ASN808	0.000	
113	  CB	-22.276	-0.545	7.836	C.3	13	ASN808	0.000	
114	  CG	-21.911	-1.558	8.902	C.2	13	ASN808	0.000	
115	 ND2	-21.652	-2.789	8.495	N.pl3	13	ASN808	0.000	
116	 OD1	-21.863	-1.228	10.087	O.2	13	ASN808	0.000	
117	   N	-16.239	-0.153	7.296	N.am	14	TYR814	0.000	
118	  CA	-16.687	-1.528	7.047	C.3	14	TYR814	0.000	
119	   C	-17.134	-1.720	5.600	C.2	14	TYR814	0.000	
120	   O	-16.763	-2.702	4.963	O.2	14	TYR814	0.000	
121	  CB	-17.810	-1.943	8.002	C.3	14	TYR814	0.000	
122	  CG	-17.409	-2.047	9.465	C.2	14	TYR814	0.000	
123	 CD1	-16.119	-2.421	9.842	C.2	14	TYR814	0.000	
124	 CD2	-18.336	-1.795	10.472	C.2	14	TYR814	0.000	
125	 CE1	-15.764	-2.521	11.175	C.2	14	TYR814	0.000	
126	 CE2	-17.989	-1.896	11.809	C.2	14	TYR814	0.000	
127	  CZ	-16.705	-2.259	12.154	C.2	14	TYR814	0.000	
128	  OH	-16.353	-2.363	13.479	O.3	14	TYR814	0.000	
@<TRIPOS>BOND
1 1 2 1
2 2 3 1
3 2 5 1
4 3 4 2
5 3 15 1
6 5 6 1
7 6 7 2
8 6 8 1
9 7 11 1
10 8 9 2
11 8 10 1
12 9 12 1
13 10 13 2
14 9 11 1
15 12 14 2
16 13 14 1
17 15 16 1
18 15 21 1
19 16 17 1
20 16 19 1
21 17 18 2
22 17 22 1
23 19 20 1
24 20 21 1
25 22 23 1
26 23 24 1
27 23 26 1
28 24 25 2
29 26 27 1
30 27 28 2
31 27 29 1
32 28 30 1
33 29 31 2
34 30 32 2
35 31 32 1
36 33 34 1
37 34 35 1
38 34 37 1
39 35 36 2
40 35 42 1
41 37 38 1
42 38 39 1
43 39 40 2
44 39 41 1
45 42 43 1
46 42 48 1
47 43 44 1
48 43 46 1
49 44 45 2
50 44 49 1
51 46 47 1
52 47 48 1
53 49 50 1
54 50 51 1
55 50 53 1
56 51 52 2
57 51 56 1
58 53 54 1
59 53 55 1
60 56 57 1
61 57 58 1
62 57 60 1
63 58 59 2
64 60 61 1
65 61 62 1
66 62 63 1
67 63 64 1
68 65 66 1
69 66 67 1
70 66 69 1
71 67 68 2
72 67 74 1
73 69 70 1
74 70 71 1
75 71 72 2
76 71 73 1
77 74 75 1
78 75 76 1
79 75 78 1
80 76 77 2
81 79 80 1
82 80 81 1
83 80 83 1
84 81 82 2
85 83 84 1
86 84 85 2
87 84 86 1
88 85 87 1
89 86 88 2
90 87 89 2
91 88 89 1
92 89 90 1
93 91 92 1
94 92 93 1
95 92 95 1
96 93 94 2
97 95 96 1
98 97 98 1
99 98 99 1
100 98 101 1
101 99 100 2
102 99 109 1
103 101 102 1
104 102 103 2
105 102 104 1
106 103 105 1
107 104 106 2
108 105 107 2
109 106 107 1
110 107 108 1
111 109 110 1
112 110 111 1
113 110 113 1
114 111 112 2
115 113 114 1
116 114 115 1
117 114 116 2
118 117 118 1
119 118 119 1
120 118 121 1
121 119 120 2
122 121 122 1
123 122 123 2
124 122 124 1
125 123 125 1
126 124 126 2
127 125 127 2
128 126 127 1
129 127 128 1
@<TRIPOS>SUBSTRUCTURE
1	TRP751	1	RESIDUE	1 B	TRP
2	PRO752	15	RESIDUE	1 B	PRO
3	PHE753	22	RESIDUE	1 B	PHE
4	GLU755	33	RESIDUE	1 B	GLU
5	PRO756	42	RESIDUE	1 B	PRO
6	VAL757	49	RESIDUE	1 B	VAL
7	LYS758	56	RESIDUE	1 B	LYS
8	GLU761	65	RESIDUE	1 B	GLU
9	ALA762	74	RESIDUE	1 B	ALA
10	TYR765	79	RESIDUE	1 B	TYR
11	CYS804	91	RESIDUE	1 B	CYS
12	TYR807	97	RESIDUE	1 B	TYR
13	ASN808	109	RESIDUE	1 B	ASN
14	TYR814	117	RESIDUE	1 B	TYR
