# created with PyMOL 2.5.2
@<TRIPOS>MOLECULE
EGFR_4I24_TargetProtein
172 165 22              
SMALL
USER_CHARGES
@<TRIPOS>ATOM
1	   N	-19.811	43.213	-2.179	N.am	1	LEU718	0.000	
2	  CA	-19.276	42.216	-3.102	C.3	1	LEU718	0.000	
3	   C	-19.069	40.881	-2.398	C.2	1	LEU718	0.000	
4	   O	-19.045	39.828	-3.036	O.2	1	LEU718	0.000	
5	  CB	-17.946	42.696	-3.688	C.3	1	LEU718	0.000	
6	  CG	-18.030	43.835	-4.707	C.3	1	LEU718	0.000	
7	 CD1	-16.634	44.390	-4.974	C.3	1	LEU718	0.000	
8	 CD2	-18.667	43.326	-5.991	C.3	1	LEU718	0.000	
9	   N	-16.587	43.439	2.140	N.am	2	VAL726	0.000	
10	  CA	-15.983	44.074	0.971	C.3	2	VAL726	0.000	
11	   C	-17.040	44.699	0.069	C.2	2	VAL726	0.000	
12	   O	-17.997	44.037	-0.334	O.2	2	VAL726	0.000	
13	  CB	-15.166	43.060	0.132	C.3	2	VAL726	0.000	
14	 CG1	-14.684	43.722	-1.155	C.3	2	VAL726	0.000	
15	 CG2	-13.979	42.554	0.937	C.3	2	VAL726	0.000	
16	   N	-12.455	49.475	-4.493	N.am	3	ALA743	0.000	
17	  CA	-12.909	48.475	-3.537	C.3	3	ALA743	0.000	
18	   C	-12.661	48.972	-2.125	C.2	3	ALA743	0.000	
19	   O	-11.587	49.497	-1.824	O.2	3	ALA743	0.000	
20	  CB	-12.175	47.163	-3.760	C.3	3	ALA743	0.000	
21	   N	-13.657	48.808	-1.260	N.am	4	ILE744	0.000	
22	  CA	-13.530	49.209	0.137	C.3	4	ILE744	0.000	
23	   C	-13.818	48.015	1.037	C.2	4	ILE744	0.000	
24	   O	-14.813	47.322	0.852	O.2	4	ILE744	0.000	
25	  CB	-14.531	50.336	0.510	C.3	4	ILE744	0.000	
26	 CG1	-14.335	51.543	-0.405	C.3	4	ILE744	0.000	
27	 CG2	-14.326	50.762	1.952	C.3	4	ILE744	0.000	
28	 CD1	-14.946	51.366	-1.765	C.3	4	ILE744	0.000	
29	   N	-12.947	47.775	2.009	N.am	5	LYS745	0.000	
30	  CA	-13.207	46.739	2.995	C.3	5	LYS745	0.000	
31	   C	-13.343	47.351	4.377	C.2	5	LYS745	0.000	
32	   O	-12.394	47.930	4.907	O.2	5	LYS745	0.000	
33	  CB	-12.081	45.700	2.997	C.3	5	LYS745	0.000	
34	  CG	-12.281	44.577	4.005	C.3	5	LYS745	0.000	
35	  CD	-11.383	43.397	3.690	C.3	5	LYS745	0.000	
36	  CE	-11.757	42.177	4.512	C.3	5	LYS745	0.000	
37	  NZ	-11.116	40.947	3.969	N.4	5	LYS745	0.000	
38	   N	-10.546	49.981	4.438	N.am	6	LEU788	0.000	
39	  CA	-9.375	49.873	3.566	C.3	6	LEU788	0.000	
40	   C	-9.797	50.072	2.112	C.2	6	LEU788	0.000	
41	   O	-10.831	49.561	1.692	O.2	6	LEU788	0.000	
42	  CB	-8.733	48.489	3.726	C.3	6	LEU788	0.000	
43	  CG	-8.454	48.046	5.166	C.3	6	LEU788	0.000	
44	 CD1	-7.892	46.624	5.175	C.3	6	LEU788	0.000	
45	 CD2	-7.479	49.008	5.819	C.3	6	LEU788	0.000	
46	   N	-8.994	50.808	1.347	N.am	7	ILE789	0.000	
47	  CA	-9.293	51.047	-0.064	C.3	7	ILE789	0.000	
48	   C	-8.211	50.464	-0.974	C.2	7	ILE789	0.000	
49	   O	-7.017	50.700	-0.770	O.2	7	ILE789	0.000	
50	  CB	-9.432	52.562	-0.371	C.3	7	ILE789	0.000	
51	 CG1	-10.657	53.140	0.351	C.3	7	ILE789	0.000	
52	 CG2	-9.571	52.772	-1.879	C.3	7	ILE789	0.000	
53	 CD1	-10.495	53.261	1.848	C.3	7	ILE789	0.000	
54	   N	-8.645	49.695	-1.966	N.am	8	MET790	0.000	
55	  CA	-7.744	49.059	-2.926	C.3	8	MET790	0.000	
56	   C	-8.371	49.125	-4.313	C.2	8	MET790	0.000	
57	   O	-9.546	49.466	-4.458	O.2	8	MET790	0.000	
58	  CB	-7.507	47.595	-2.536	C.3	8	MET790	0.000	
59	  CG	-6.818	47.415	-1.186	C.3	8	MET790	0.000	
60	  SD	-6.657	45.675	-0.691	S.3	8	MET790	0.000	
61	  CE	-5.030	45.291	-1.319	C.3	8	MET790	0.000	
62	   N	-7.587	48.790	-5.333	N.am	9	GLN791	0.000	
63	  CA	-8.082	48.777	-6.706	C.3	9	GLN791	0.000	
64	   C	-9.172	47.724	-6.888	C.2	9	GLN791	0.000	
65	   O	-9.027	46.574	-6.460	O.2	9	GLN791	0.000	
66	  CB	-6.934	48.497	-7.685	C.3	9	GLN791	0.000	
67	  CG	-7.347	48.535	-9.153	C.3	9	GLN791	0.000	
68	  CD	-6.176	48.328	-10.100	C.2	9	GLN791	0.000	
69	 NE2	-6.100	49.158	-11.131	N.pl3	9	GLN791	0.000	
70	 OE1	-5.350	47.434	-9.904	O.2	9	GLN791	0.000	
71	   N	-10.264	48.120	-7.529	N.am	10	LEU792	0.000	
72	  CA	-11.374	47.207	-7.766	C.3	10	LEU792	0.000	
73	   C	-11.002	46.248	-8.890	C.2	10	LEU792	0.000	
74	   O	-10.486	46.662	-9.929	O.2	10	LEU792	0.000	
75	  CB	-12.629	47.994	-8.153	C.3	10	LEU792	0.000	
76	  CG	-13.876	47.167	-8.483	C.3	10	LEU792	0.000	
77	 CD1	-14.432	46.540	-7.201	C.3	10	LEU792	0.000	
78	 CD2	-14.919	48.060	-9.138	C.3	10	LEU792	0.000	
79	   N	-11.240	44.961	-8.685	N.am	11	MET793	0.000	
80	  CA	-11.066	44.022	-9.773	C.3	11	MET793	0.000	
81	   C	-12.334	43.262	-10.119	C.2	11	MET793	0.000	
82	   O	-12.738	42.328	-9.423	O.2	11	MET793	0.000	
83	  CB	-9.911	43.077	-9.466	C.3	11	MET793	0.000	
84	  CG	-8.586	43.724	-9.844	C.3	11	MET793	0.000	
85	  SD	-7.157	42.868	-9.289	S.3	11	MET793	0.000	
86	  CE	-7.464	42.796	-7.542	C.3	11	MET793	0.000	
87	   N	-12.978	43.669	-11.224	N.am	12	PRO794	0.000	
88	  CA	-14.314	43.237	-11.642	C.3	12	PRO794	0.000	
89	   C	-14.468	41.729	-11.771	C.2	12	PRO794	0.000	
90	   O	-15.540	41.195	-11.499	O.2	12	PRO794	0.000	
91	  CB	-14.519	43.950	-12.977	C.3	12	PRO794	0.000	
92	  CG	-13.657	45.159	-12.879	C.3	12	PRO794	0.000	
93	  CD	-12.439	44.705	-12.120	C.3	12	PRO794	0.000	
94	   N	-13.409	41.038	-12.183	N.am	13	PHE795	0.000	
95	  CA	-13.502	39.591	-12.345	C.3	13	PHE795	0.000	
96	   C	-13.696	38.850	-11.021	C.2	13	PHE795	0.000	
97	   O	-14.196	37.729	-11.005	O.2	13	PHE795	0.000	
98	  CB	-12.267	39.054	-13.073	C.3	13	PHE795	0.000	
99	  CG	-12.379	39.101	-14.572	C.2	13	PHE795	0.000	
100	 CD1	-11.658	40.030	-15.311	C.2	13	PHE795	0.000	
101	 CD2	-13.198	38.205	-15.245	C.2	13	PHE795	0.000	
102	 CE1	-11.749	40.067	-16.691	C.2	13	PHE795	0.000	
103	 CE2	-13.296	38.233	-16.627	C.2	13	PHE795	0.000	
104	  CZ	-12.570	39.166	-17.354	C.2	13	PHE795	0.000	
105	   N	-13.308	39.471	-9.914	N.am	14	GLY796	0.000	
106	  CA	-13.615	38.901	-8.611	C.3	14	GLY796	0.000	
107	   C	-12.591	37.904	-8.100	C.2	14	GLY796	0.000	
108	   O	-11.454	37.877	-8.590	O.2	14	GLY796	0.000	
109	   N	-12.983	37.096	-7.110	N.am	15	CYS797	0.000	
110	  CA	-12.064	36.118	-6.531	C.3	15	CYS797	0.000	
111	   C	-11.958	34.870	-7.391	C.2	15	CYS797	0.000	
112	   O	-12.923	34.448	-8.032	O.2	15	CYS797	0.000	
113	  CB	-12.472	35.742	-5.089	C.3	15	CYS797	0.000	
114	  SG	-14.174	35.153	-4.838	S.3	15	CYS797	0.000	
115	   N	-11.707	31.845	-6.578	N.am	16	LEU799	0.000	
116	  CA	-12.537	30.726	-6.138	C.3	16	LEU799	0.000	
117	   C	-13.866	30.732	-6.895	C.2	16	LEU799	0.000	
118	   O	-14.262	29.717	-7.469	O.2	16	LEU799	0.000	
119	  CB	-12.793	30.796	-4.630	C.3	16	LEU799	0.000	
120	  CG	-13.673	29.681	-4.054	C.3	16	LEU799	0.000	
121	 CD1	-13.045	28.317	-4.371	C.3	16	LEU799	0.000	
122	 CD2	-13.831	29.873	-2.547	C.3	16	LEU799	0.000	
123	   N	-14.542	31.880	-6.911	N.am	17	ASP800	0.000	
124	  CA	-15.790	32.015	-7.671	C.3	17	ASP800	0.000	
125	   C	-15.531	31.741	-9.142	C.2	17	ASP800	0.000	
126	   O	-16.328	31.091	-9.820	O.2	17	ASP800	0.000	
127	  CB	-16.368	33.430	-7.538	C.3	17	ASP800	0.000	
128	  CG	-16.747	33.779	-6.112	C.2	17	ASP800	0.000	
129	 OD1	-17.077	34.960	-5.862	O.co2	17	ASP800	0.000	
130	 OD2	-16.712	32.883	-5.244	O.co2	17	ASP800	0.000	
131	   N	-10.127	31.912	-2.148	N.am	18	ARG841	0.000	
132	  CA	-11.022	33.027	-1.845	C.3	18	ARG841	0.000	
133	   C	-10.253	34.342	-1.694	C.2	18	ARG841	0.000	
134	   O	-10.836	35.429	-1.772	O.2	18	ARG841	0.000	
135	  CB	-11.794	32.744	-0.552	C.3	18	ARG841	0.000	
136	  CG	-10.935	32.801	0.693	C.3	18	ARG841	0.000	
137	  CD	-11.708	32.424	1.950	C.3	18	ARG841	0.000	
138	  NE	-10.791	32.172	3.056	N.pl3	18	ARG841	0.000	
139	  CZ	-10.366	30.965	3.415	C.cat	18	ARG841	0.000	
140	 NH1	-9.521	30.839	4.427	N.pl3	18	ARG841	0.000	
141	 NH2	-10.797	29.884	2.777	N.pl3	18	ARG841	0.000	
142	   N	-7.389	37.133	-6.372	N.am	19	LEU844	0.000	
143	  CA	-8.279	37.855	-7.274	C.3	19	LEU844	0.000	
144	   C	-7.829	37.784	-8.729	C.2	19	LEU844	0.000	
145	   O	-6.637	37.633	-9.041	O.2	19	LEU844	0.000	
146	  CB	-8.396	39.321	-6.846	C.3	19	LEU844	0.000	
147	  CG	-8.906	39.582	-5.427	C.3	19	LEU844	0.000	
148	 CD1	-8.889	41.074	-5.162	C.3	19	LEU844	0.000	
149	 CD2	-10.322	39.018	-5.248	C.3	19	LEU844	0.000	
150	   N	-4.657	38.712	-2.474	N.am	20	THR854	0.000	
151	  CA	-5.164	39.850	-1.717	C.3	20	THR854	0.000	
152	   C	-5.271	39.516	-0.223	C.2	20	THR854	0.000	
153	   O	-4.880	38.427	0.209	O.2	20	THR854	0.000	
154	  CB	-6.543	40.326	-2.282	C.3	20	THR854	0.000	
155	 CG2	-7.648	39.355	-1.914	C.3	20	THR854	0.000	
156	 OG1	-6.858	41.623	-1.761	O.3	20	THR854	0.000	
157	   N	-5.764	40.473	0.557	N.am	21	ASP855	0.000	
158	  CA	-5.972	40.302	1.992	C.3	21	ASP855	0.000	
159	   C	-4.692	40.125	2.792	C.2	21	ASP855	0.000	
160	   O	-4.728	39.631	3.917	O.2	21	ASP855	0.000	
161	  CB	-6.903	39.116	2.266	C.3	21	ASP855	0.000	
162	  CG	-8.369	39.518	2.288	C.2	21	ASP855	0.000	
163	 OD1	-8.690	40.575	2.865	O.co2	21	ASP855	0.000	
164	 OD2	-9.204	38.777	1.726	O.co2	21	ASP855	0.000	
165	   N	-4.181	41.294	7.031	N.am	22	LEU858	0.000	
166	  CA	-5.380	41.300	7.866	C.3	22	LEU858	0.000	
167	   C	-5.348	40.261	8.984	C.2	22	LEU858	0.000	
168	   O	-5.742	40.545	10.116	O.2	22	LEU858	0.000	
169	  CB	-6.627	41.085	7.005	C.3	22	LEU858	0.000	
170	  CG	-6.988	42.272	6.113	C.3	22	LEU858	0.000	
171	 CD1	-8.402	42.105	5.578	C.3	22	LEU858	0.000	
172	 CD2	-6.877	43.557	6.921	C.3	22	LEU858	0.000	
@<TRIPOS>BOND
1 1 2 1
2 2 3 1
3 2 5 1
4 3 4 2
5 5 6 1
6 6 7 1
7 6 8 1
8 9 10 1
9 10 11 1
10 10 13 1
11 11 12 2
12 13 14 1
13 13 15 1
14 16 17 1
15 17 18 1
16 17 20 1
17 18 19 2
18 18 21 1
19 21 22 1
20 22 23 1
21 22 25 1
22 23 24 2
23 23 29 1
24 25 26 1
25 25 27 1
26 26 28 1
27 29 30 1
28 30 31 1
29 30 33 1
30 31 32 2
31 33 34 1
32 34 35 1
33 35 36 1
34 36 37 1
35 38 39 1
36 39 40 1
37 39 42 1
38 40 41 2
39 40 46 1
40 42 43 1
41 43 44 1
42 43 45 1
43 46 47 1
44 47 48 1
45 47 50 1
46 48 49 2
47 48 54 1
48 50 51 1
49 50 52 1
50 51 53 1
51 54 55 1
52 55 56 1
53 55 58 1
54 56 57 2
55 56 62 1
56 58 59 1
57 59 60 1
58 60 61 1
59 62 63 1
60 63 64 1
61 63 66 1
62 64 65 2
63 64 71 1
64 66 67 1
65 67 68 1
66 68 69 1
67 68 70 2
68 71 72 1
69 72 73 1
70 72 75 1
71 73 74 2
72 73 79 1
73 75 76 1
74 76 77 1
75 76 78 1
76 79 80 1
77 80 81 1
78 80 83 1
79 81 82 2
80 81 87 1
81 83 84 1
82 84 85 1
83 85 86 1
84 87 88 1
85 87 93 1
86 88 89 1
87 88 91 1
88 89 90 2
89 89 94 1
90 91 92 1
91 92 93 1
92 94 95 1
93 95 96 1
94 95 98 1
95 96 97 2
96 96 105 1
97 98 99 1
98 99 100 2
99 99 101 1
100 100 102 1
101 101 103 2
102 102 104 2
103 103 104 1
104 105 106 1
105 106 107 1
106 107 108 2
107 107 109 1
108 109 110 1
109 110 111 1
110 110 113 1
111 111 112 2
112 113 114 1
113 115 116 1
114 116 117 1
115 116 119 1
116 117 118 2
117 117 123 1
118 119 120 1
119 120 121 1
120 120 122 1
121 123 124 1
122 124 125 1
123 124 127 1
124 125 126 2
125 127 128 1
126 128 129 2
127 128 130 1
128 131 132 1
129 132 133 1
130 132 135 1
131 133 134 2
132 135 136 1
133 136 137 1
134 137 138 1
135 138 139 1
136 139 140 2
137 139 141 1
138 142 143 1
139 143 144 1
140 143 146 1
141 144 145 2
142 146 147 1
143 147 148 1
144 147 149 1
145 150 151 1
146 151 152 1
147 151 154 1
148 152 153 2
149 152 157 1
150 154 155 1
151 154 156 1
152 157 158 1
153 158 159 1
154 158 161 1
155 159 160 2
156 161 162 1
157 162 163 2
158 162 164 1
159 165 166 1
160 166 167 1
161 166 169 1
162 167 168 2
163 169 170 1
164 170 171 1
165 170 172 1
@<TRIPOS>SUBSTRUCTURE
1	LEU718	1	RESIDUE	1 B	LEU
2	VAL726	9	RESIDUE	1 B	VAL
3	ALA743	16	RESIDUE	1 B	ALA
4	ILE744	21	RESIDUE	1 B	ILE
5	LYS745	29	RESIDUE	1 B	LYS
6	LEU788	38	RESIDUE	1 B	LEU
7	ILE789	46	RESIDUE	1 B	ILE
8	MET790	54	RESIDUE	1 B	MET
9	GLN791	62	RESIDUE	1 B	GLN
10	LEU792	71	RESIDUE	1 B	LEU
11	MET793	79	RESIDUE	1 B	MET
12	PRO794	87	RESIDUE	1 B	PRO
13	PHE795	94	RESIDUE	1 B	PHE
14	GLY796	105	RESIDUE	1 B	GLY
15	CYS797	109	RESIDUE	1 B	CYS
16	LEU799	115	RESIDUE	1 B	LEU
17	ASP800	123	RESIDUE	1 B	ASP
18	ARG841	131	RESIDUE	1 B	ARG
19	LEU844	142	RESIDUE	1 B	LEU
20	THR854	150	RESIDUE	1 B	THR
21	ASP855	157	RESIDUE	1 B	ASP
22	LEU858	165	RESIDUE	1 B	LEU
