# created with PyMOL 2.5.2
@<TRIPOS>MOLECULE
ALK_6MX8_TargetProtein
164 155 23              
SMALL
USER_CHARGES
@<TRIPOS>ATOM
1	   N	2.897	18.107	1.282	N.am	1	LEU1122	0.000	
2	  CA	3.167	19.029	2.403	C.3	1	LEU1122	0.000	
3	   C	4.633	19.491	2.438	C.2	1	LEU1122	0.000	
4	   O	4.905	20.571	2.934	O.2	1	LEU1122	0.000	
5	  CB	2.822	18.335	3.722	C.3	1	LEU1122	0.000	
6	  CG	1.369	17.907	3.902	C.3	1	LEU1122	0.000	
7	 CD1	1.220	17.073	5.168	C.3	1	LEU1122	0.000	
8	 CD2	0.444	19.113	3.949	C.3	1	LEU1122	0.000	
9	   N	5.578	18.658	1.985	N.am	2	GLY1123	0.000	
10	  CA	6.987	19.065	1.877	C.3	2	GLY1123	0.000	
11	   C	7.916	17.872	1.760	C.2	2	GLY1123	0.000	
12	   O	7.456	16.748	1.604	O.2	2	GLY1123	0.000	
13	   N	9.228	18.123	1.854	N.am	3	HIS1124	0.000	
14	  CA	10.243	17.060	1.832	C.3	3	HIS1124	0.000	
15	   C	10.713	16.743	3.261	C.2	3	HIS1124	0.000	
16	   O	10.868	17.632	4.102	O.2	3	HIS1124	0.000	
17	  CB	11.388	17.443	0.885	C.3	3	HIS1124	0.000	
18	  CG	10.955	17.511	-0.540	C.2	3	HIS1124	0.000	
19	 CD2	10.540	18.549	-1.299	C.2	3	HIS1124	0.000	
20	 ND1	10.894	16.390	-1.342	N.pl3	3	HIS1124	0.000	
21	 CE1	10.474	16.737	-2.541	C.2	3	HIS1124	0.000	
22	 NE2	10.249	18.056	-2.541	N.pl3	3	HIS1124	0.000	
23	   N	6.209	14.057	2.131	N.am	4	VAL1130	0.000	
24	  CA	5.137	13.912	3.114	C.3	4	VAL1130	0.000	
25	   C	3.842	14.423	2.479	C.2	4	VAL1130	0.000	
26	   O	3.855	15.479	1.857	O.2	4	VAL1130	0.000	
27	  CB	5.456	14.695	4.406	C.3	4	VAL1130	0.000	
28	 CG1	4.446	14.422	5.513	C.3	4	VAL1130	0.000	
29	 CG2	6.871	14.426	4.896	C.3	4	VAL1130	0.000	
30	   N	-0.784	12.507	8.334	N.am	5	ALA1148	0.000	
31	  CA	0.358	12.783	7.499	C.3	5	ALA1148	0.000	
32	   C	0.992	11.439	7.118	C.2	5	ALA1148	0.000	
33	   O	1.039	10.496	7.919	O.2	5	ALA1148	0.000	
34	  CB	1.341	13.689	8.214	C.3	5	ALA1148	0.000	
35	   N	4.342	9.791	5.442	N.am	6	LYS1150	0.000	
36	  CA	5.729	9.807	4.991	C.3	6	LYS1150	0.000	
37	   C	5.938	8.610	4.073	C.2	6	LYS1150	0.000	
38	   O	5.595	7.494	4.434	O.2	6	LYS1150	0.000	
39	  CB	6.724	9.745	6.153	C.3	6	LYS1150	0.000	
40	  CG	6.563	10.845	7.187	C.3	6	LYS1150	0.000	
41	  CD	7.781	11.050	8.063	C.3	6	LYS1150	0.000	
42	  CE	8.926	11.745	7.355	C.3	6	LYS1150	0.000	
43	  NZ	10.060	12.006	8.277	N.4	6	LYS1150	0.000	
44	   N	4.952	13.427	18.226	N.am	7	VAL1180	0.000	
45	  CA	3.987	13.113	17.180	C.3	7	VAL1180	0.000	
46	   C	3.635	11.632	17.277	C.2	7	VAL1180	0.000	
47	   O	4.522	10.788	17.381	O.2	7	VAL1180	0.000	
48	  CB	4.539	13.461	15.785	C.3	7	VAL1180	0.000	
49	 CG1	3.657	12.938	14.672	C.3	7	VAL1180	0.000	
50	 CG2	4.703	14.960	15.612	C.3	7	VAL1180	0.000	
51	   N	1.380	9.251	10.359	N.am	8	LEU1196	0.000	
52	  CA	1.623	10.082	11.511	C.3	8	LEU1196	0.000	
53	   C	0.433	11.014	11.732	C.2	8	LEU1196	0.000	
54	   O	-0.345	11.323	10.822	O.2	8	LEU1196	0.000	
55	  CB	2.913	10.868	11.279	C.3	8	LEU1196	0.000	
56	  CG	4.159	10.011	11.069	C.3	8	LEU1196	0.000	
57	 CD1	5.366	10.879	10.788	C.3	8	LEU1196	0.000	
58	 CD2	4.421	9.132	12.278	C.3	8	LEU1196	0.000	
59	   N	0.290	11.414	12.987	N.am	9	GLU1197	0.000	
60	  CA	-0.586	12.464	13.389	C.3	9	GLU1197	0.000	
61	   C	-0.422	13.671	12.457	C.2	9	GLU1197	0.000	
62	   O	0.693	14.169	12.262	O.2	9	GLU1197	0.000	
63	  CB	-0.193	12.805	14.828	C.3	9	GLU1197	0.000	
64	  CG	-0.904	13.995	15.431	C.3	9	GLU1197	0.000	
65	  CD	-0.526	14.208	16.886	C.2	9	GLU1197	0.000	
66	 OE1	0.482	13.617	17.342	O.co2	9	GLU1197	0.000	
67	 OE2	-1.226	14.967	17.560	O.co2	9	GLU1197	0.000	
68	   N	-1.530	14.169	11.909	N.am	10	LEU1198	0.000	
69	  CA	-1.478	15.358	11.058	C.3	10	LEU1198	0.000	
70	   C	-1.324	16.599	11.941	C.2	10	LEU1198	0.000	
71	   O	-2.131	16.856	12.792	O.2	10	LEU1198	0.000	
72	  CB	-2.746	15.489	10.219	C.3	10	LEU1198	0.000	
73	  CG	-2.733	16.680	9.264	C.3	10	LEU1198	0.000	
74	 CD1	-1.603	16.562	8.247	C.3	10	LEU1198	0.000	
75	 CD2	-4.069	16.821	8.567	C.3	10	LEU1198	0.000	
76	   N	-0.266	17.361	11.709	N.am	11	MET1199	0.000	
77	  CA	0.010	18.543	12.475	C.3	11	MET1199	0.000	
78	   C	-0.309	19.748	11.574	C.2	11	MET1199	0.000	
79	   O	0.517	20.173	10.766	O.2	11	MET1199	0.000	
80	  CB	1.478	18.517	12.908	C.3	11	MET1199	0.000	
81	  CG	1.818	17.264	13.717	C.3	11	MET1199	0.000	
82	  SD	1.045	17.328	15.348	S.3	11	MET1199	0.000	
83	  CE	2.056	18.593	16.113	C.3	11	MET1199	0.000	
84	   N	-1.538	20.255	11.708	N.am	12	ALA1200	0.000	
85	  CA	-2.138	21.208	10.746	C.3	12	ALA1200	0.000	
86	   C	-1.459	22.585	10.807	C.2	12	ALA1200	0.000	
87	   O	-1.555	23.357	9.850	O.2	12	ALA1200	0.000	
88	  CB	-3.623	21.322	10.987	C.3	12	ALA1200	0.000	
89	   N	-0.752	22.875	11.907	N.am	13	GLY1201	0.000	
90	  CA	-0.025	24.125	12.057	C.3	13	GLY1201	0.000	
91	   C	1.280	24.133	11.279	C.2	13	GLY1201	0.000	
92	   O	1.936	25.159	11.192	O.2	13	GLY1201	0.000	
93	   N	1.704	22.966	10.782	N.am	14	GLY1202	0.000	
94	  CA	2.961	22.829	10.046	C.3	14	GLY1202	0.000	
95	   C	4.183	22.755	10.956	C.2	14	GLY1202	0.000	
96	   O	4.067	22.653	12.178	O.2	14	GLY1202	0.000	
97	   N	5.366	22.799	10.326	N.am	15	ASP1203	0.000	
98	  CA	6.660	22.867	11.004	C.3	15	ASP1203	0.000	
99	   C	6.802	24.249	11.639	C.2	15	ASP1203	0.000	
100	   O	6.260	25.244	11.148	O.2	15	ASP1203	0.000	
101	  CB	7.833	22.572	10.067	C.3	15	ASP1203	0.000	
102	  CG	8.058	23.661	9.035	C.2	15	ASP1203	0.000	
103	 OD1	7.182	23.822	8.147	O.co2	15	ASP1203	0.000	
104	 OD2	9.062	24.385	9.174	O.co2	15	ASP1203	0.000	
105	   N	8.623	27.261	9.691	N.am	16	SER1206	0.000	
106	  CA	7.734	27.924	8.729	C.3	16	SER1206	0.000	
107	   C	6.670	28.735	9.462	C.2	16	SER1206	0.000	
108	   O	6.344	29.856	9.039	O.2	16	SER1206	0.000	
109	  CB	7.077	26.934	7.814	C.3	16	SER1206	0.000	
110	  OG	8.049	26.068	7.257	O.3	16	SER1206	0.000	
111	   N	6.093	32.679	8.971	N.am	17	GLU1210	0.000	
112	  CA	4.862	33.074	8.343	C.3	17	GLU1210	0.000	
113	   C	3.945	33.819	9.316	C.2	17	GLU1210	0.000	
114	   O	3.134	34.598	8.854	O.2	17	GLU1210	0.000	
115	  CB	4.153	31.861	7.743	C.3	17	GLU1210	0.000	
116	  CG	4.538	31.615	6.294	C.3	17	GLU1210	0.000	
117	  CD	4.389	30.179	5.817	C.2	17	GLU1210	0.000	
118	 OE1	3.247	29.762	5.533	O.co2	17	GLU1210	0.000	
119	 OE2	5.417	29.483	5.729	O.co2	17	GLU1210	0.000	
120	   N	12.987	23.184	12.651	N.am	18	ARG1253	0.000	
121	  CA	12.551	22.428	11.414	C.3	18	ARG1253	0.000	
122	   C	12.035	21.012	11.758	C.2	18	ARG1253	0.000	
123	   O	11.376	20.356	10.946	O.2	18	ARG1253	0.000	
124	  CB	13.710	22.358	10.403	C.3	18	ARG1253	0.000	
125	  CG	14.880	21.495	10.864	C.3	18	ARG1253	0.000	
126	  CD	16.078	21.387	9.931	C.3	18	ARG1253	0.000	
127	  NE	17.220	20.808	10.657	N.pl3	18	ARG1253	0.000	
128	  CZ	18.141	21.532	11.304	C.cat	18	ARG1253	0.000	
129	 NH1	18.159	22.846	11.165	N.pl3	18	ARG1253	0.000	
130	 NH2	19.037	20.960	12.091	N.pl3	18	ARG1253	0.000	
131	   N	12.325	20.520	12.969	N.am	19	ASN1254	0.000	
132	  CA	11.983	19.152	13.360	C.3	19	ASN1254	0.000	
133	   C	10.789	19.148	14.330	C.2	19	ASN1254	0.000	
134	   O	10.382	18.091	14.784	O.2	19	ASN1254	0.000	
135	  CB	13.222	18.441	13.913	C.3	19	ASN1254	0.000	
136	  CG	14.255	18.173	12.838	C.2	19	ASN1254	0.000	
137	 ND2	15.535	18.215	13.188	N.pl3	19	ASN1254	0.000	
138	 OD1	13.887	17.928	11.691	O.2	19	ASN1254	0.000	
139	   N	10.230	20.327	14.618	N.am	20	CYS1255	0.000	
140	  CA	9.077	20.501	15.495	C.3	20	CYS1255	0.000	
141	   C	7.842	20.903	14.689	C.2	20	CYS1255	0.000	
142	   O	7.960	21.594	13.676	O.2	20	CYS1255	0.000	
143	  CB	9.323	21.606	16.507	C.3	20	CYS1255	0.000	
144	  SG	10.683	21.205	17.630	S.3	20	CYS1255	0.000	
145	   N	6.666	20.493	15.172	N.am	21	LEU1256	0.000	
146	  CA	5.384	20.689	14.463	C.3	21	LEU1256	0.000	
147	   C	4.345	21.231	15.443	C.2	21	LEU1256	0.000	
148	   O	4.457	21.019	16.656	O.2	21	LEU1256	0.000	
149	  CB	4.892	19.362	13.884	C.3	21	LEU1256	0.000	
150	  CG	5.823	18.684	12.892	C.3	21	LEU1256	0.000	
151	 CD1	5.650	17.177	12.958	C.3	21	LEU1256	0.000	
152	 CD2	5.578	19.190	11.480	C.3	21	LEU1256	0.000	
153	   N	8.762	16.016	15.950	N.am	22	GLY1269	0.000	
154	  CA	8.168	15.392	14.765	C.3	22	GLY1269	0.000	
155	   C	9.082	14.443	14.008	C.2	22	GLY1269	0.000	
156	   O	8.607	13.437	13.491	O.2	22	GLY1269	0.000	
157	   N	10.371	14.779	13.888	N.am	23	ASP1270	0.000	
158	  CA	11.335	14.041	13.063	C.3	23	ASP1270	0.000	
159	   C	12.440	13.487	13.975	C.2	23	ASP1270	0.000	
160	   O	12.898	14.171	14.927	O.2	23	ASP1270	0.000	
161	  CB	11.868	14.954	11.960	C.3	23	ASP1270	0.000	
162	  CG	12.980	14.370	11.103	C.2	23	ASP1270	0.000	
163	 OD1	14.117	14.288	11.594	O.co2	23	ASP1270	0.000	
164	 OD2	12.702	14.023	9.943	O.co2	23	ASP1270	0.000	
@<TRIPOS>BOND
1 1 2 1
2 2 3 1
3 2 5 1
4 3 4 2
5 3 9 1
6 5 6 1
7 6 7 1
8 6 8 1
9 9 10 1
10 10 11 1
11 11 12 2
12 11 13 1
13 13 14 1
14 14 15 1
15 14 17 1
16 15 16 2
17 17 18 1
18 18 19 2
19 18 20 1
20 19 22 1
21 20 21 2
22 21 22 1
23 23 24 1
24 24 25 1
25 24 27 1
26 25 26 2
27 27 28 1
28 27 29 1
29 30 31 1
30 31 32 1
31 31 34 1
32 32 33 2
33 35 36 1
34 36 37 1
35 36 39 1
36 37 38 2
37 39 40 1
38 40 41 1
39 41 42 1
40 42 43 1
41 44 45 1
42 45 46 1
43 45 48 1
44 46 47 2
45 48 49 1
46 48 50 1
47 51 52 1
48 52 53 1
49 52 55 1
50 53 54 2
51 53 59 1
52 55 56 1
53 56 57 1
54 56 58 1
55 59 60 1
56 60 61 1
57 60 63 1
58 61 62 2
59 61 68 1
60 63 64 1
61 64 65 1
62 65 66 2
63 65 67 1
64 68 69 1
65 69 70 1
66 69 72 1
67 70 71 2
68 70 76 1
69 72 73 1
70 73 74 1
71 73 75 1
72 76 77 1
73 77 78 1
74 77 80 1
75 78 79 2
76 78 84 1
77 80 81 1
78 81 82 1
79 82 83 1
80 84 85 1
81 85 86 1
82 85 88 1
83 86 87 2
84 86 89 1
85 89 90 1
86 90 91 1
87 91 92 2
88 91 93 1
89 93 94 1
90 94 95 1
91 95 96 2
92 95 97 1
93 97 98 1
94 98 99 1
95 98 101 1
96 99 100 2
97 101 102 1
98 102 103 2
99 102 104 1
100 105 106 1
101 106 107 1
102 106 109 1
103 107 108 2
104 109 110 1
105 111 112 1
106 112 113 1
107 112 115 1
108 113 114 2
109 115 116 1
110 116 117 1
111 117 118 2
112 117 119 1
113 120 121 1
114 121 122 1
115 121 124 1
116 122 123 2
117 122 131 1
118 124 125 1
119 125 126 1
120 126 127 1
121 127 128 1
122 128 129 2
123 128 130 1
124 131 132 1
125 132 133 1
126 132 135 1
127 133 134 2
128 133 139 1
129 135 136 1
130 136 137 1
131 136 138 2
132 139 140 1
133 140 141 1
134 140 143 1
135 141 142 2
136 141 145 1
137 143 144 1
138 145 146 1
139 146 147 1
140 146 149 1
141 147 148 2
142 149 150 1
143 150 151 1
144 150 152 1
145 153 154 1
146 154 155 1
147 155 156 2
148 155 157 1
149 157 158 1
150 158 159 1
151 158 161 1
152 159 160 2
153 161 162 1
154 162 163 2
155 162 164 1
@<TRIPOS>SUBSTRUCTURE
1	LEU1122	1	RESIDUE	1 B	LEU
2	GLY1123	9	RESIDUE	1 B	GLY
3	HIS1124	13	RESIDUE	1 B	HIS
4	VAL1130	23	RESIDUE	1 B	VAL
5	ALA1148	30	RESIDUE	1 B	ALA
6	LYS1150	35	RESIDUE	1 B	LYS
7	VAL1180	44	RESIDUE	1 B	VAL
8	LEU1196	51	RESIDUE	1 B	LEU
9	GLU1197	59	RESIDUE	1 B	GLU
10	LEU1198	68	RESIDUE	1 B	LEU
11	MET1199	76	RESIDUE	1 B	MET
12	ALA1200	84	RESIDUE	1 B	ALA
13	GLY1201	89	RESIDUE	1 B	GLY
14	GLY1202	93	RESIDUE	1 B	GLY
15	ASP1203	97	RESIDUE	1 B	ASP
16	SER1206	105	RESIDUE	1 B	SER
17	GLU1210	111	RESIDUE	1 B	GLU
18	ARG1253	120	RESIDUE	1 B	ARG
19	ASN1254	131	RESIDUE	1 B	ASN
20	CYS1255	139	RESIDUE	1 B	CYS
21	LEU1256	145	RESIDUE	1 B	LEU
22	GLY1269	153	RESIDUE	1 B	GLY
23	ASP1270	157	RESIDUE	1 B	ASP
