# created with PyMOL 2.5.2
@<TRIPOS>MOLECULE
EGFR_5GMP_TargetProtein
164 151 22              
SMALL
USER_CHARGES
@<TRIPOS>ATOM
1	   N	-4.223	-45.937	126.412	N.am	1	LEU718	0.000	
2	  CA	-2.960	-46.550	126.803	C.3	1	LEU718	0.000	
3	   C	-1.722	-45.710	126.512	C.2	1	LEU718	0.000	
4	   O	-0.824	-45.596	127.333	O.2	1	LEU718	0.000	
5	  CB	-2.822	-47.922	126.153	C.3	1	LEU718	0.000	
6	  CG	-4.051	-48.796	126.327	C.3	1	LEU718	0.000	
7	 CD1	-3.903	-50.109	125.591	C.3	1	LEU718	0.000	
8	 CD2	-4.306	-49.016	127.799	C.3	1	LEU718	0.000	
9	   N	-1.678	-45.129	125.328	N.am	2	GLY719	0.000	
10	  CA	-0.510	-44.386	124.911	C.3	2	GLY719	0.000	
11	   C	-0.864	-43.370	123.859	C.2	2	GLY719	0.000	
12	   O	-1.866	-43.508	123.178	O.2	2	GLY719	0.000	
13	   N	-3.037	-45.067	120.845	N.am	3	VAL726	0.000	
14	  CA	-3.630	-46.389	120.950	C.3	3	VAL726	0.000	
15	   C	-4.486	-46.496	122.203	C.2	3	VAL726	0.000	
16	   O	-4.078	-46.101	123.280	O.2	3	VAL726	0.000	
17	  CB	-2.565	-47.500	120.910	C.3	3	VAL726	0.000	
18	 CG1	-1.218	-46.967	121.348	C.3	3	VAL726	0.000	
19	 CG2	-2.981	-48.684	121.756	C.3	3	VAL726	0.000	
20	   N	-7.246	-48.601	124.843	N.am	4	LYS728	0.000	
21	  CA	-7.857	-49.798	125.384	C.3	4	LYS728	0.000	
22	   C	-9.295	-49.819	124.898	C.2	4	LYS728	0.000	
23	   O	-9.921	-48.783	124.809	O.2	4	LYS728	0.000	
24	  CB	-7.814	-49.756	126.901	C.3	4	LYS728	0.000	
25	  CG	-8.371	-50.984	127.591	C.3	4	LYS728	0.000	
26	  CD	-8.129	-50.906	129.084	C.3	4	LYS728	0.000	
27	  CE	-9.405	-51.149	129.865	C.3	4	LYS728	0.000	
28	  NZ	-9.218	-50.918	131.322	N.4	4	LYS728	0.000	
29	   N	-6.828	-53.520	121.563	N.am	5	ALA743	0.000	
30	  CA	-6.050	-52.309	121.558	C.3	5	ALA743	0.000	
31	   C	-6.292	-51.629	120.221	C.2	5	ALA743	0.000	
32	   O	-6.002	-52.183	119.178	O.2	5	ALA743	0.000	
33	  CB	-4.586	-52.634	121.733	C.3	5	ALA743	0.000	
34	   N	-5.442	-48.637	117.702	N.am	6	LYS745	0.000	
35	  CA	-4.447	-47.637	117.400	C.3	6	LYS745	0.000	
36	   C	-4.889	-46.850	116.181	C.2	6	LYS745	0.000	
37	   O	-5.224	-47.421	115.161	O.2	6	LYS745	0.000	
38	  CB	-3.097	-48.308	117.183	C.3	6	LYS745	0.000	
39	  CG	-2.474	-48.081	115.827	C.3	6	LYS745	0.000	
40	  CD	-1.033	-47.636	115.964	C.3	6	LYS745	0.000	
41	  CE	-0.102	-48.813	116.158	C.3	6	LYS745	0.000	
42	  NZ	1.277	-48.439	115.754	N.4	6	LYS745	0.000	
43	   N	0.687	-58.027	110.024	N.am	7	MET766	0.000	
44	  CA	-0.018	-58.600	111.167	C.3	7	MET766	0.000	
45	   C	-1.087	-59.620	110.804	C.2	7	MET766	0.000	
46	   O	-1.298	-60.591	111.511	O.2	7	MET766	0.000	
47	  CB	-0.599	-57.499	112.045	C.3	7	MET766	0.000	
48	  CG	0.018	-57.438	113.431	C.3	7	MET766	0.000	
49	  SD	-0.199	-55.867	114.268	S.3	7	MET766	0.000	
50	  CE	-1.206	-56.362	115.646	C.3	7	MET766	0.000	
51	   N	1.775	-61.228	118.048	N.am	8	CYS775	0.000	
52	  CA	0.521	-60.510	118.247	C.3	8	CYS775	0.000	
53	   C	-0.421	-60.523	117.050	C.2	8	CYS775	0.000	
54	   O	0.004	-60.376	115.917	O.2	8	CYS775	0.000	
55	  CB	0.802	-59.076	118.682	C.3	8	CYS775	0.000	
56	  SG	-0.679	-58.138	119.101	S.3	8	CYS775	0.000	
57	   N	-6.467	-54.568	117.575	N.am	9	MET790	0.000	
58	  CA	-5.543	-55.626	117.881	C.3	9	MET790	0.000	
59	   C	-5.879	-56.199	119.229	C.2	9	MET790	0.000	
60	   O	-6.587	-55.584	120.000	O.2	9	MET790	0.000	
61	  CB	-4.127	-55.085	117.858	C.3	9	MET790	0.000	
62	  CG	-3.772	-54.455	116.529	C.3	9	MET790	0.000	
63	  SD	-2.254	-53.507	116.537	S.3	9	MET790	0.000	
64	  CE	-2.786	-52.026	117.361	C.3	9	MET790	0.000	
65	   N	-5.402	-57.403	119.490	N.am	10	GLN791	0.000	
66	  CA	-5.617	-58.054	120.761	C.3	10	GLN791	0.000	
67	   C	-4.961	-57.269	121.875	C.2	10	GLN791	0.000	
68	   O	-3.858	-56.779	121.726	O.2	10	GLN791	0.000	
69	  CB	-5.041	-59.456	120.709	C.3	10	GLN791	0.000	
70	  CG	-4.928	-60.142	122.047	C.3	10	GLN791	0.000	
71	  CD	-4.304	-61.507	121.929	C.2	10	GLN791	0.000	
72	 NE2	-4.750	-62.435	122.756	N.pl3	10	GLN791	0.000	
73	 OE1	-3.433	-61.725	121.098	O.2	10	GLN791	0.000	
74	   N	-5.657	-57.168	122.998	N.am	11	LEU792	0.000	
75	  CA	-5.214	-56.400	124.145	C.3	11	LEU792	0.000	
76	   C	-4.241	-57.217	124.947	C.2	11	LEU792	0.000	
77	   O	-4.548	-58.327	125.354	O.2	11	LEU792	0.000	
78	  CB	-6.418	-56.102	125.032	C.3	11	LEU792	0.000	
79	  CG	-6.511	-54.873	125.931	C.3	11	LEU792	0.000	
80	 CD1	-7.074	-55.258	127.277	C.3	11	LEU792	0.000	
81	 CD2	-5.188	-54.171	126.089	C.3	11	LEU792	0.000	
82	   N	-3.069	-56.666	125.205	N.am	12	MET793	0.000	
83	  CA	-2.156	-57.328	126.101	C.3	12	MET793	0.000	
84	   C	-2.263	-56.587	127.404	C.2	12	MET793	0.000	
85	   O	-1.700	-55.524	127.568	O.2	12	MET793	0.000	
86	  CB	-0.738	-57.268	125.558	C.3	12	MET793	0.000	
87	  CG	-0.607	-57.745	124.126	C.3	12	MET793	0.000	
88	  SD	-1.130	-59.438	123.875	S.3	12	MET793	0.000	
89	  CE	0.361	-60.301	124.302	C.3	12	MET793	0.000	
90	   N	-2.971	-57.193	128.338	N.am	13	PRO794	0.000	
91	  CA	-3.438	-56.538	129.553	C.3	13	PRO794	0.000	
92	   C	-2.319	-56.073	130.454	C.2	13	PRO794	0.000	
93	   O	-2.474	-55.100	131.154	O.2	13	PRO794	0.000	
94	  CB	-4.277	-57.615	130.212	C.3	13	PRO794	0.000	
95	  CG	-4.846	-58.352	129.065	C.3	13	PRO794	0.000	
96	  CD	-3.788	-58.366	128.007	C.3	13	PRO794	0.000	
97	   N	0.685	-55.126	129.557	N.am	14	GLY796	0.000	
98	  CA	1.544	-54.134	128.959	C.3	14	GLY796	0.000	
99	   C	2.851	-54.609	128.377	C.2	14	GLY796	0.000	
100	   O	3.008	-55.760	128.006	O.2	14	GLY796	0.000	
101	   N	3.772	-53.661	128.276	N.am	15	CYS797	0.000	
102	  CA	5.127	-53.843	127.781	C.3	15	CYS797	0.000	
103	   C	5.927	-54.777	128.664	C.2	15	CYS797	0.000	
104	   O	5.883	-54.663	129.881	O.2	15	CYS797	0.000	
105	  CB	5.698	-52.463	128.015	C.3	15	CYS797	0.000	
106	  SG	7.164	-51.999	127.072	S.3	15	CYS797	0.000	
107	   N	8.534	-52.680	130.616	N.am	16	ASP800	0.000	
108	  CA	7.963	-52.008	131.758	C.3	16	ASP800	0.000	
109	   C	7.767	-53.014	132.859	C.2	16	ASP800	0.000	
110	   O	8.005	-52.731	134.018	O.2	16	ASP800	0.000	
111	  CB	6.620	-51.385	131.398	C.3	16	ASP800	0.000	
112	  CG	6.763	-50.112	130.613	C.2	16	ASP800	0.000	
113	 OD1	5.763	-49.396	130.451	O.co2	16	ASP800	0.000	
114	 OD2	7.877	-49.827	130.152	O.co2	16	ASP800	0.000	
115	   N	10.994	-53.755	124.720	N.am	17	ARG841	0.000	
116	  CA	9.913	-52.802	124.536	C.3	17	ARG841	0.000	
117	   C	8.871	-53.307	123.550	C.2	17	ARG841	0.000	
118	   O	7.707	-52.945	123.633	O.2	17	ARG841	0.000	
119	  CB	10.463	-51.459	124.085	C.3	17	ARG841	0.000	
120	  CG	10.439	-51.256	122.589	C.3	17	ARG841	0.000	
121	  CD	10.976	-49.896	122.213	C.3	17	ARG841	0.000	
122	  NE	12.393	-49.977	121.920	N.pl3	17	ARG841	0.000	
123	  CZ	12.896	-50.066	120.700	C.cat	17	ARG841	0.000	
124	 NH1	12.088	-50.068	119.655	N.pl3	17	ARG841	0.000	
125	 NH2	14.205	-50.144	120.527	N.pl3	17	ARG841	0.000	
126	   N	9.307	-54.107	122.588	N.am	18	ASN842	0.000	
127	  CA	8.426	-54.629	121.554	C.3	18	ASN842	0.000	
128	   C	7.840	-56.002	121.835	C.2	18	ASN842	0.000	
129	   O	7.237	-56.611	120.973	O.2	18	ASN842	0.000	
130	  CB	9.105	-54.601	120.200	C.3	18	ASN842	0.000	
131	  CG	9.216	-53.209	119.654	C.2	18	ASN842	0.000	
132	 ND2	10.228	-52.975	118.844	N.pl3	18	ASN842	0.000	
133	 OD1	8.407	-52.351	119.966	O.2	18	ASN842	0.000	
134	   N	5.089	-57.833	124.308	N.am	19	LEU844	0.000	
135	  CA	3.958	-57.495	125.154	C.3	19	LEU844	0.000	
136	   C	3.482	-58.721	125.897	C.2	19	LEU844	0.000	
137	   O	3.569	-59.823	125.387	O.2	19	LEU844	0.000	
138	  CB	2.817	-56.919	124.322	C.3	19	LEU844	0.000	
139	  CG	3.039	-55.569	123.641	C.3	19	LEU844	0.000	
140	 CD1	1.713	-54.895	123.377	C.3	19	LEU844	0.000	
141	 CD2	3.927	-54.660	124.468	C.3	19	LEU844	0.000	
142	   N	5.723	-57.977	118.888	N.am	20	THR854	0.000	
143	  CA	4.904	-56.895	118.382	C.3	20	THR854	0.000	
144	   C	5.740	-55.883	117.620	C.2	20	THR854	0.000	
145	   O	6.931	-56.054	117.483	O.2	20	THR854	0.000	
146	  CB	4.143	-56.197	119.512	C.3	20	THR854	0.000	
147	 CG2	5.070	-55.324	120.309	C.3	20	THR854	0.000	
148	 OG1	3.110	-55.384	118.959	O.3	20	THR854	0.000	
149	   N	5.098	-54.834	117.119	N.am	21	ASP855	0.000	
150	  CA	5.759	-53.765	116.359	C.3	21	ASP855	0.000	
151	   C	6.478	-54.138	115.070	C.2	21	ASP855	0.000	
152	   O	7.616	-53.758	114.848	O.2	21	ASP855	0.000	
153	  CB	6.716	-52.998	117.256	C.3	21	ASP855	0.000	
154	  CG	6.293	-51.573	117.467	C.2	21	ASP855	0.000	
155	 OD1	5.236	-51.357	118.084	O.co2	21	ASP855	0.000	
156	 OD2	7.023	-50.667	117.027	O.co2	21	ASP855	0.000	
157	   N	-11.948	-54.565	133.140	N.am	22	MET1002	0.000	
158	  CA	-12.052	-53.124	133.319	C.3	22	MET1002	0.000	
159	   C	-12.651	-52.391	132.117	C.2	22	MET1002	0.000	
160	   O	-12.541	-52.833	130.978	O.2	22	MET1002	0.000	
161	  CB	-10.687	-52.532	133.670	C.3	22	MET1002	0.000	
162	  CG	-9.646	-53.567	134.059	C.3	22	MET1002	0.000	
163	  SD	-9.144	-54.580	132.660	S.3	22	MET1002	0.000	
164	  CE	-7.491	-53.975	132.348	C.3	22	MET1002	0.000	
@<TRIPOS>BOND
1 1 2 1
2 2 3 1
3 2 5 1
4 3 4 2
5 3 9 1
6 5 6 1
7 6 7 1
8 6 8 1
9 9 10 1
10 10 11 1
11 11 12 2
12 13 14 1
13 14 15 1
14 14 17 1
15 15 16 2
16 17 18 1
17 17 19 1
18 20 21 1
19 21 22 1
20 21 24 1
21 22 23 2
22 24 25 1
23 25 26 1
24 26 27 1
25 27 28 1
26 29 30 1
27 30 31 1
28 30 33 1
29 31 32 2
30 34 35 1
31 35 36 1
32 35 38 1
33 36 37 2
34 38 39 1
35 39 40 1
36 40 41 1
37 41 42 1
38 43 44 1
39 44 45 1
40 44 47 1
41 45 46 2
42 47 48 1
43 48 49 1
44 49 50 1
45 51 52 1
46 52 53 1
47 52 55 1
48 53 54 2
49 55 56 1
50 57 58 1
51 58 59 1
52 58 61 1
53 59 60 2
54 59 65 1
55 61 62 1
56 62 63 1
57 63 64 1
58 65 66 1
59 66 67 1
60 66 69 1
61 67 68 2
62 67 74 1
63 69 70 1
64 70 71 1
65 71 72 1
66 71 73 2
67 74 75 1
68 75 76 1
69 75 78 1
70 76 77 2
71 76 82 1
72 78 79 1
73 79 80 1
74 79 81 1
75 82 83 1
76 83 84 1
77 83 86 1
78 84 85 2
79 84 90 1
80 86 87 1
81 87 88 1
82 88 89 1
83 90 91 1
84 90 96 1
85 91 92 1
86 91 94 1
87 92 93 2
88 94 95 1
89 95 96 1
90 97 98 1
91 98 99 1
92 99 100 2
93 99 101 1
94 101 102 1
95 102 103 1
96 102 105 1
97 103 104 2
98 105 106 1
99 107 108 1
100 108 109 1
101 108 111 1
102 109 110 2
103 111 112 1
104 112 113 2
105 112 114 1
106 115 116 1
107 116 117 1
108 116 119 1
109 117 118 2
110 117 126 1
111 119 120 1
112 120 121 1
113 121 122 1
114 122 123 1
115 123 124 2
116 123 125 1
117 126 127 1
118 127 128 1
119 127 130 1
120 128 129 2
121 130 131 1
122 131 132 1
123 131 133 2
124 134 135 1
125 135 136 1
126 135 138 1
127 136 137 2
128 138 139 1
129 139 140 1
130 139 141 1
131 142 143 1
132 143 144 1
133 143 146 1
134 144 145 2
135 144 149 1
136 146 147 1
137 146 148 1
138 149 150 1
139 150 151 1
140 150 153 1
141 151 152 2
142 153 154 1
143 154 155 2
144 154 156 1
145 157 158 1
146 158 159 1
147 158 161 1
148 159 160 2
149 161 162 1
150 162 163 1
151 163 164 1
@<TRIPOS>SUBSTRUCTURE
1	LEU718	1	RESIDUE	1 B	LEU
2	GLY719	9	RESIDUE	1 B	GLY
3	VAL726	13	RESIDUE	1 B	VAL
4	LYS728	20	RESIDUE	1 B	LYS
5	ALA743	29	RESIDUE	1 B	ALA
6	LYS745	34	RESIDUE	1 B	LYS
7	MET766	43	RESIDUE	1 B	MET
8	CYS775	51	RESIDUE	1 B	CYS
9	MET790	57	RESIDUE	1 B	MET
10	GLN791	65	RESIDUE	1 B	GLN
11	LEU792	74	RESIDUE	1 B	LEU
12	MET793	82	RESIDUE	1 B	MET
13	PRO794	90	RESIDUE	1 B	PRO
14	GLY796	97	RESIDUE	1 B	GLY
15	CYS797	101	RESIDUE	1 B	CYS
16	ASP800	107	RESIDUE	1 B	ASP
17	ARG841	115	RESIDUE	1 B	ARG
18	ASN842	126	RESIDUE	1 B	ASN
19	LEU844	134	RESIDUE	1 B	LEU
20	THR854	142	RESIDUE	1 B	THR
21	ASP855	149	RESIDUE	1 B	ASP
22	MET1002	157	RESIDUE	1 B	MET
