# created with PyMOL 2.5.2
@<TRIPOS>MOLECULE
PBRM1_6ZS3_TargetProtein
139 134 16              
SMALL
USER_CHARGES
@<TRIPOS>ATOM
1	   N	22.687	-2.129	24.274	N.am	1	ILE683	0.000	
2	  CA	22.205	-2.739	25.507	C.3	1	ILE683	0.000	
3	   C	20.763	-3.219	25.398	C.2	1	ILE683	0.000	
4	   O	20.350	-4.076	26.192	O.2	1	ILE683	0.000	
5	  CB	22.358	-1.769	26.696	C.3	1	ILE683	0.000	
6	 CG1	22.436	-2.568	28.005	C.3	1	ILE683	0.000	
7	 CG2	21.262	-0.719	26.724	C.3	1	ILE683	0.000	
8	 CD1	23.749	-3.384	28.137	C.3	1	ILE683	0.000	
9	   N	19.985	-2.687	24.452	N.am	2	PHE684	0.000	
10	  CA	18.568	-3.017	24.329	C.3	2	PHE684	0.000	
11	   C	18.314	-4.216	23.433	C.2	2	PHE684	0.000	
12	   O	17.149	-4.589	23.243	O.2	2	PHE684	0.000	
13	  CB	17.791	-1.802	23.804	C.3	2	PHE684	0.000	
14	  CG	17.991	-0.564	24.651	C.2	2	PHE684	0.000	
15	 CD1	17.455	-0.484	25.931	C.2	2	PHE684	0.000	
16	 CD2	18.729	0.502	24.177	C.2	2	PHE684	0.000	
17	 CE1	17.653	0.646	26.716	C.2	2	PHE684	0.000	
18	 CE2	18.943	1.625	24.960	C.2	2	PHE684	0.000	
19	  CZ	18.415	1.702	26.237	C.2	2	PHE684	0.000	
20	   N	18.914	-7.415	23.793	N.am	3	ARG686	0.000	
21	  CA	18.449	-8.597	24.503	C.3	3	ARG686	0.000	
22	   C	18.424	-8.314	26.001	C.2	3	ARG686	0.000	
23	   O	19.417	-7.853	26.574	O.2	3	ARG686	0.000	
24	  CB	19.334	-9.806	24.168	C.3	3	ARG686	0.000	
25	  CG	19.005	-11.045	24.988	C.3	3	ARG686	0.000	
26	  CD	19.354	-12.296	24.217	C.3	3	ARG686	0.000	
27	  NE	19.752	-13.403	25.085	N.pl3	3	ARG686	0.000	
28	  CZ	18.914	-14.224	25.708	C.cat	3	ARG686	0.000	
29	 NH1	17.603	-14.069	25.587	N.pl3	3	ARG686	0.000	
30	 NH2	19.395	-15.203	26.464	N.pl3	3	ARG686	0.000	
31	   N	17.270	-8.554	26.622	N.am	4	LEU687	0.000	
32	  CA	17.133	-8.358	28.060	C.3	4	LEU687	0.000	
33	   C	18.030	-9.322	28.831	C.2	4	LEU687	0.000	
34	   O	18.274	-10.444	28.380	O.2	4	LEU687	0.000	
35	  CB	15.690	-8.594	28.495	C.3	4	LEU687	0.000	
36	  CG	14.607	-7.559	28.216	C.3	4	LEU687	0.000	
37	 CD1	13.252	-8.240	28.275	C.3	4	LEU687	0.000	
38	 CD2	14.695	-6.458	29.257	C.3	4	LEU687	0.000	
39	   N	18.512	-8.919	30.008	N.am	5	PRO688	0.000	
40	  CA	19.047	-9.901	30.956	C.3	5	PRO688	0.000	
41	   C	18.003	-10.954	31.296	C.2	5	PRO688	0.000	
42	   O	16.801	-10.682	31.324	O.2	5	PRO688	0.000	
43	  CB	19.392	-9.057	32.191	C.3	5	PRO688	0.000	
44	  CG	19.492	-7.670	31.710	C.3	5	PRO688	0.000	
45	  CD	18.554	-7.549	30.544	C.3	5	PRO688	0.000	
46	   N	19.444	-13.912	35.777	N.am	6	GLU692	0.000	
47	  CA	20.499	-12.904	35.888	C.3	6	GLU692	0.000	
48	   C	20.068	-11.732	36.768	C.2	6	GLU692	0.000	
49	   O	20.788	-11.326	37.688	O.2	6	GLU692	0.000	
50	  CB	20.861	-12.437	34.469	C.3	6	GLU692	0.000	
51	  CG	21.881	-11.325	34.291	C.3	6	GLU692	0.000	
52	  CD	22.108	-11.005	32.807	C.2	6	GLU692	0.000	
53	 OE1	22.499	-9.866	32.477	O.co2	6	GLU692	0.000	
54	 OE2	21.886	-11.898	31.959	O.co2	6	GLU692	0.000	
55	   N	18.884	-11.184	36.509	N.am	7	LEU693	0.000	
56	  CA	18.447	-9.917	37.095	C.3	7	LEU693	0.000	
57	   C	16.981	-10.049	37.491	C.2	7	LEU693	0.000	
58	   O	16.095	-9.424	36.900	O.2	7	LEU693	0.000	
59	  CB	18.663	-8.775	36.097	C.3	7	LEU693	0.000	
60	  CG	18.639	-7.308	36.526	C.3	7	LEU693	0.000	
61	 CD1	19.743	-7.015	37.514	C.3	7	LEU693	0.000	
62	 CD2	18.775	-6.423	35.287	C.3	7	LEU693	0.000	
63	   N	14.602	-6.877	37.993	N.am	8	TYR696	0.000	
64	  CA	14.075	-6.172	36.830	C.3	8	TYR696	0.000	
65	   C	12.629	-6.579	36.578	C.2	8	TYR696	0.000	
66	   O	11.763	-5.730	36.341	O.2	8	TYR696	0.000	
67	  CB	14.937	-6.468	35.595	C.3	8	TYR696	0.000	
68	  CG	14.538	-5.691	34.353	C.2	8	TYR696	0.000	
69	 CD1	13.541	-6.152	33.501	C.2	8	TYR696	0.000	
70	 CD2	15.158	-4.485	34.041	C.2	8	TYR696	0.000	
71	 CE1	13.178	-5.436	32.355	C.2	8	TYR696	0.000	
72	 CE2	14.794	-3.763	32.913	C.2	8	TYR696	0.000	
73	  CZ	13.809	-4.237	32.084	C.2	8	TYR696	0.000	
74	  OH	13.478	-3.494	30.979	O.3	8	TYR696	0.000	
75	   N	10.320	-6.213	27.342	N.am	9	MET704	0.000	
76	  CA	10.462	-6.031	25.905	C.3	9	MET704	0.000	
77	   C	11.927	-5.785	25.569	C.2	9	MET704	0.000	
78	   O	12.640	-5.129	26.330	O.2	9	MET704	0.000	
79	  CB	9.600	-4.855	25.426	C.3	9	MET704	0.000	
80	  CG	9.581	-4.617	23.942	C.3	9	MET704	0.000	
81	  SD	8.934	-6.026	23.014	S.3	9	MET704	0.000	
82	  CE	7.363	-6.348	23.801	C.3	9	MET704	0.000	
83	   N	12.376	-6.304	24.425	N.am	10	ASP705	0.000	
84	  CA	13.704	-5.959	23.914	C.3	10	ASP705	0.000	
85	   C	13.654	-5.947	22.385	C.2	10	ASP705	0.000	
86	   O	12.602	-6.169	21.761	O.2	10	ASP705	0.000	
87	  CB	14.796	-6.891	24.476	C.3	10	ASP705	0.000	
88	  CG	14.559	-8.358	24.155	C.2	10	ASP705	0.000	
89	 OD1	13.885	-8.668	23.146	O.co2	10	ASP705	0.000	
90	 OD2	15.069	-9.200	24.919	O.co2	10	ASP705	0.000	
91	   N	9.551	-0.588	25.654	N.am	11	MET731	0.000	
92	  CA	10.905	-0.975	26.026	C.3	11	MET731	0.000	
93	   C	11.675	0.201	26.622	C.2	11	MET731	0.000	
94	   O	12.330	0.067	27.660	O.2	11	MET731	0.000	
95	  CB	11.614	-1.536	24.794	C.3	11	MET731	0.000	
96	  CG	13.050	-1.993	25.032	C.3	11	MET731	0.000	
97	  SD	13.903	-2.402	23.489	S.3	11	MET731	0.000	
98	  CE	14.306	-0.770	22.907	C.3	11	MET731	0.000	
99	   N	10.304	1.043	29.959	N.am	12	ASN734	0.000	
100	  CA	10.785	0.055	30.931	C.3	12	ASN734	0.000	
101	   C	12.199	0.378	31.400	C.2	12	ASN734	0.000	
102	   O	12.482	0.351	32.601	O.2	12	ASN734	0.000	
103	  CB	10.759	-1.361	30.339	C.3	12	ASN734	0.000	
104	  CG	9.341	-1.923	30.143	C.2	12	ASN734	0.000	
105	 ND2	9.248	-2.981	29.349	N.pl3	12	ASN734	0.000	
106	 OD1	8.354	-1.437	30.718	O.2	12	ASN734	0.000	
107	   N	13.102	0.654	30.455	N.am	13	ALA735	0.000	
108	  CA	14.474	1.004	30.795	C.3	13	ALA735	0.000	
109	   C	14.515	2.212	31.723	C.2	13	ALA735	0.000	
110	   O	15.296	2.242	32.680	O.2	13	ALA735	0.000	
111	  CB	15.280	1.260	29.519	C.3	13	ALA735	0.000	
112	   N	13.240	1.231	35.366	N.am	14	TYR738	0.000	
113	  CA	14.173	0.430	36.153	C.3	14	TYR738	0.000	
114	   C	15.430	1.206	36.533	C.2	14	TYR738	0.000	
115	   O	15.936	1.058	37.652	O.2	14	TYR738	0.000	
116	  CB	14.549	-0.833	35.379	C.3	14	TYR738	0.000	
117	  CG	15.526	-1.724	36.119	C.2	14	TYR738	0.000	
118	 CD1	15.104	-2.495	37.194	C.2	14	TYR738	0.000	
119	 CD2	16.866	-1.809	35.732	C.2	14	TYR738	0.000	
120	 CE1	15.996	-3.315	37.894	C.2	14	TYR738	0.000	
121	 CE2	17.759	-2.633	36.412	C.2	14	TYR738	0.000	
122	  CZ	17.315	-3.378	37.493	C.2	14	TYR738	0.000	
123	  OH	18.202	-4.189	38.175	O.3	14	TYR738	0.000	
124	   N	15.966	2.019	35.626	N.am	15	ASN739	0.000	
125	  CA	17.212	2.729	35.870	C.3	15	ASN739	0.000	
126	   C	16.942	4.148	36.360	C.2	15	ASN739	0.000	
127	   O	15.877	4.724	36.104	O.2	15	ASN739	0.000	
128	  CB	18.073	2.777	34.607	C.3	15	ASN739	0.000	
129	  CG	18.434	1.392	34.093	C.2	15	ASN739	0.000	
130	 ND2	17.702	0.908	33.082	N.pl3	15	ASN739	0.000	
131	 OD1	19.358	0.768	34.594	O.2	15	ASN739	0.000	
132	   N	22.092	4.173	30.728	N.am	16	ILE745	0.000	
133	  CA	21.064	3.437	29.994	C.3	16	ILE745	0.000	
134	   C	19.788	4.264	29.902	C.2	16	ILE745	0.000	
135	   O	19.124	4.298	28.858	O.2	16	ILE745	0.000	
136	  CB	20.822	2.061	30.648	C.3	16	ILE745	0.000	
137	 CG1	22.050	1.160	30.445	C.3	16	ILE745	0.000	
138	 CG2	19.571	1.417	30.088	C.3	16	ILE745	0.000	
139	 CD1	22.107	-0.071	31.337	C.3	16	ILE745	0.000	
@<TRIPOS>BOND
1 1 2 1
2 2 3 1
3 2 5 1
4 3 4 2
5 3 9 1
6 5 6 1
7 5 7 1
8 6 8 1
9 9 10 1
10 10 11 1
11 10 13 1
12 11 12 2
13 13 14 1
14 14 15 2
15 14 16 1
16 15 17 1
17 16 18 2
18 17 19 2
19 18 19 1
20 20 21 1
21 21 22 1
22 21 24 1
23 22 23 2
24 22 31 1
25 24 25 1
26 25 26 1
27 26 27 1
28 27 28 1
29 28 29 2
30 28 30 1
31 31 32 1
32 32 33 1
33 32 35 1
34 33 34 2
35 33 39 1
36 35 36 1
37 36 37 1
38 36 38 1
39 39 40 1
40 39 45 1
41 40 41 1
42 40 43 1
43 41 42 2
44 43 44 1
45 44 45 1
46 46 47 1
47 47 48 1
48 47 50 1
49 48 49 2
50 48 55 1
51 50 51 1
52 51 52 1
53 52 53 2
54 52 54 1
55 55 56 1
56 56 57 1
57 56 59 1
58 57 58 2
59 59 60 1
60 60 61 1
61 60 62 1
62 63 64 1
63 64 65 1
64 64 67 1
65 65 66 2
66 67 68 1
67 68 69 2
68 68 70 1
69 69 71 1
70 70 72 2
71 71 73 2
72 72 73 1
73 73 74 1
74 75 76 1
75 76 77 1
76 76 79 1
77 77 78 2
78 77 83 1
79 79 80 1
80 80 81 1
81 81 82 1
82 83 84 1
83 84 85 1
84 84 87 1
85 85 86 2
86 87 88 1
87 88 89 2
88 88 90 1
89 91 92 1
90 92 93 1
91 92 95 1
92 93 94 2
93 95 96 1
94 96 97 1
95 97 98 1
96 99 100 1
97 100 101 1
98 100 103 1
99 101 102 2
100 101 107 1
101 103 104 1
102 104 105 1
103 104 106 2
104 107 108 1
105 108 109 1
106 108 111 1
107 109 110 2
108 112 113 1
109 113 114 1
110 113 116 1
111 114 115 2
112 114 124 1
113 116 117 1
114 117 118 2
115 117 119 1
116 118 120 1
117 119 121 2
118 120 122 2
119 121 122 1
120 122 123 1
121 124 125 1
122 125 126 1
123 125 128 1
124 126 127 2
125 128 129 1
126 129 130 1
127 129 131 2
128 132 133 1
129 133 134 1
130 133 136 1
131 134 135 2
132 136 137 1
133 136 138 1
134 137 139 1
@<TRIPOS>SUBSTRUCTURE
1	ILE683	1	RESIDUE	1 B	ILE
2	PHE684	9	RESIDUE	1 B	PHE
3	ARG686	20	RESIDUE	1 B	ARG
4	LEU687	31	RESIDUE	1 B	LEU
5	PRO688	39	RESIDUE	1 B	PRO
6	GLU692	46	RESIDUE	1 B	GLU
7	LEU693	55	RESIDUE	1 B	LEU
8	TYR696	63	RESIDUE	1 B	TYR
9	MET704	75	RESIDUE	1 B	MET
10	ASP705	83	RESIDUE	1 B	ASP
11	MET731	91	RESIDUE	1 B	MET
12	ASN734	99	RESIDUE	1 B	ASN
13	ALA735	107	RESIDUE	1 B	ALA
14	TYR738	112	RESIDUE	1 B	TYR
15	ASN739	124	RESIDUE	1 B	ASN
16	ILE745	132	RESIDUE	1 B	ILE
