# created with PyMOL 2.5.2
@<TRIPOS>MOLECULE
PBRM1_6ZS3_TargetProtein
147 143 17              
SMALL
USER_CHARGES
@<TRIPOS>ATOM
1	   N	22.687	-2.129	24.274	N.am	1	ILE683	0.000	
2	  CA	22.205	-2.739	25.507	C.3	1	ILE683	0.000	
3	   C	20.763	-3.219	25.398	C.2	1	ILE683	0.000	
4	   O	20.350	-4.076	26.192	O.2	1	ILE683	0.000	
5	  CB	22.358	-1.769	26.696	C.3	1	ILE683	0.000	
6	 CG1	22.436	-2.568	28.005	C.3	1	ILE683	0.000	
7	 CG2	21.262	-0.719	26.724	C.3	1	ILE683	0.000	
8	 CD1	23.749	-3.384	28.137	C.3	1	ILE683	0.000	
9	   N	19.985	-2.687	24.452	N.am	2	PHE684	0.000	
10	  CA	18.568	-3.017	24.329	C.3	2	PHE684	0.000	
11	   C	18.314	-4.216	23.433	C.2	2	PHE684	0.000	
12	   O	17.149	-4.589	23.243	O.2	2	PHE684	0.000	
13	  CB	17.791	-1.802	23.804	C.3	2	PHE684	0.000	
14	  CG	17.991	-0.564	24.651	C.2	2	PHE684	0.000	
15	 CD1	17.455	-0.484	25.931	C.2	2	PHE684	0.000	
16	 CD2	18.729	0.502	24.177	C.2	2	PHE684	0.000	
17	 CE1	17.653	0.646	26.716	C.2	2	PHE684	0.000	
18	 CE2	18.943	1.625	24.960	C.2	2	PHE684	0.000	
19	  CZ	18.415	1.702	26.237	C.2	2	PHE684	0.000	
20	   N	19.358	-4.822	22.850	N.am	3	LEU685	0.000	
21	  CA	19.101	-5.897	21.893	C.3	3	LEU685	0.000	
22	   C	18.500	-7.126	22.571	C.2	3	LEU685	0.000	
23	   O	17.653	-7.814	21.990	O.2	3	LEU685	0.000	
24	  CB	20.391	-6.261	21.148	C.3	3	LEU685	0.000	
25	  CG	20.957	-5.116	20.317	C.3	3	LEU685	0.000	
26	 CD1	22.300	-5.552	19.692	C.3	3	LEU685	0.000	
27	 CD2	20.016	-4.640	19.254	C.3	3	LEU685	0.000	
28	   N	18.914	-7.415	23.793	N.am	4	ARG686	0.000	
29	  CA	18.449	-8.597	24.503	C.3	4	ARG686	0.000	
30	   C	18.424	-8.314	26.001	C.2	4	ARG686	0.000	
31	   O	19.417	-7.853	26.574	O.2	4	ARG686	0.000	
32	  CB	19.334	-9.806	24.168	C.3	4	ARG686	0.000	
33	  CG	19.005	-11.045	24.988	C.3	4	ARG686	0.000	
34	  CD	19.354	-12.296	24.217	C.3	4	ARG686	0.000	
35	  NE	19.752	-13.403	25.085	N.pl3	4	ARG686	0.000	
36	  CZ	18.914	-14.224	25.708	C.cat	4	ARG686	0.000	
37	 NH1	17.603	-14.069	25.587	N.pl3	4	ARG686	0.000	
38	 NH2	19.395	-15.203	26.464	N.pl3	4	ARG686	0.000	
39	   N	17.270	-8.554	26.622	N.am	5	LEU687	0.000	
40	  CA	17.133	-8.358	28.060	C.3	5	LEU687	0.000	
41	   C	18.030	-9.322	28.831	C.2	5	LEU687	0.000	
42	   O	18.274	-10.444	28.380	O.2	5	LEU687	0.000	
43	  CB	15.690	-8.594	28.495	C.3	5	LEU687	0.000	
44	  CG	14.607	-7.559	28.216	C.3	5	LEU687	0.000	
45	 CD1	13.252	-8.240	28.275	C.3	5	LEU687	0.000	
46	 CD2	14.695	-6.458	29.257	C.3	5	LEU687	0.000	
47	   N	18.512	-8.919	30.008	N.am	6	PRO688	0.000	
48	  CA	19.047	-9.901	30.956	C.3	6	PRO688	0.000	
49	   C	18.003	-10.954	31.296	C.2	6	PRO688	0.000	
50	   O	16.801	-10.682	31.324	O.2	6	PRO688	0.000	
51	  CB	19.392	-9.057	32.191	C.3	6	PRO688	0.000	
52	  CG	19.492	-7.670	31.710	C.3	6	PRO688	0.000	
53	  CD	18.554	-7.549	30.544	C.3	6	PRO688	0.000	
54	   N	19.444	-13.912	35.777	N.am	7	GLU692	0.000	
55	  CA	20.499	-12.904	35.888	C.3	7	GLU692	0.000	
56	   C	20.068	-11.732	36.768	C.2	7	GLU692	0.000	
57	   O	20.788	-11.326	37.688	O.2	7	GLU692	0.000	
58	  CB	20.861	-12.437	34.469	C.3	7	GLU692	0.000	
59	  CG	21.881	-11.325	34.291	C.3	7	GLU692	0.000	
60	  CD	22.108	-11.005	32.807	C.2	7	GLU692	0.000	
61	 OE1	22.499	-9.866	32.477	O.co2	7	GLU692	0.000	
62	 OE2	21.886	-11.898	31.959	O.co2	7	GLU692	0.000	
63	   N	18.884	-11.184	36.509	N.am	8	LEU693	0.000	
64	  CA	18.447	-9.917	37.095	C.3	8	LEU693	0.000	
65	   C	16.981	-10.049	37.491	C.2	8	LEU693	0.000	
66	   O	16.095	-9.424	36.900	O.2	8	LEU693	0.000	
67	  CB	18.663	-8.775	36.097	C.3	8	LEU693	0.000	
68	  CG	18.639	-7.308	36.526	C.3	8	LEU693	0.000	
69	 CD1	19.743	-7.015	37.514	C.3	8	LEU693	0.000	
70	 CD2	18.775	-6.423	35.287	C.3	8	LEU693	0.000	
71	   N	14.602	-6.877	37.993	N.am	9	TYR696	0.000	
72	  CA	14.075	-6.172	36.830	C.3	9	TYR696	0.000	
73	   C	12.629	-6.579	36.578	C.2	9	TYR696	0.000	
74	   O	11.763	-5.730	36.341	O.2	9	TYR696	0.000	
75	  CB	14.937	-6.468	35.595	C.3	9	TYR696	0.000	
76	  CG	14.538	-5.691	34.353	C.2	9	TYR696	0.000	
77	 CD1	13.541	-6.152	33.501	C.2	9	TYR696	0.000	
78	 CD2	15.158	-4.485	34.041	C.2	9	TYR696	0.000	
79	 CE1	13.178	-5.436	32.355	C.2	9	TYR696	0.000	
80	 CE2	14.794	-3.763	32.913	C.2	9	TYR696	0.000	
81	  CZ	13.809	-4.237	32.084	C.2	9	TYR696	0.000	
82	  OH	13.478	-3.494	30.979	O.3	9	TYR696	0.000	
83	   N	10.320	-6.213	27.342	N.am	10	MET704	0.000	
84	  CA	10.462	-6.031	25.905	C.3	10	MET704	0.000	
85	   C	11.927	-5.785	25.569	C.2	10	MET704	0.000	
86	   O	12.640	-5.129	26.330	O.2	10	MET704	0.000	
87	  CB	9.600	-4.855	25.426	C.3	10	MET704	0.000	
88	  CG	9.581	-4.617	23.942	C.3	10	MET704	0.000	
89	  SD	8.934	-6.026	23.014	S.3	10	MET704	0.000	
90	  CE	7.363	-6.348	23.801	C.3	10	MET704	0.000	
91	   N	12.376	-6.304	24.425	N.am	11	ASP705	0.000	
92	  CA	13.704	-5.959	23.914	C.3	11	ASP705	0.000	
93	   C	13.654	-5.947	22.385	C.2	11	ASP705	0.000	
94	   O	12.602	-6.169	21.761	O.2	11	ASP705	0.000	
95	  CB	14.796	-6.891	24.476	C.3	11	ASP705	0.000	
96	  CG	14.559	-8.358	24.155	C.2	11	ASP705	0.000	
97	 OD1	13.885	-8.668	23.146	O.co2	11	ASP705	0.000	
98	 OD2	15.069	-9.200	24.919	O.co2	11	ASP705	0.000	
99	   N	9.551	-0.588	25.654	N.am	12	MET731	0.000	
100	  CA	10.905	-0.975	26.026	C.3	12	MET731	0.000	
101	   C	11.675	0.201	26.622	C.2	12	MET731	0.000	
102	   O	12.330	0.067	27.660	O.2	12	MET731	0.000	
103	  CB	11.614	-1.536	24.794	C.3	12	MET731	0.000	
104	  CG	13.050	-1.993	25.032	C.3	12	MET731	0.000	
105	  SD	13.903	-2.402	23.489	S.3	12	MET731	0.000	
106	  CE	14.306	-0.770	22.907	C.3	12	MET731	0.000	
107	   N	10.304	1.043	29.959	N.am	13	ASN734	0.000	
108	  CA	10.785	0.055	30.931	C.3	13	ASN734	0.000	
109	   C	12.199	0.378	31.400	C.2	13	ASN734	0.000	
110	   O	12.482	0.351	32.601	O.2	13	ASN734	0.000	
111	  CB	10.759	-1.361	30.339	C.3	13	ASN734	0.000	
112	  CG	9.341	-1.923	30.143	C.2	13	ASN734	0.000	
113	 ND2	9.248	-2.981	29.349	N.pl3	13	ASN734	0.000	
114	 OD1	8.354	-1.437	30.718	O.2	13	ASN734	0.000	
115	   N	13.102	0.654	30.455	N.am	14	ALA735	0.000	
116	  CA	14.474	1.004	30.795	C.3	14	ALA735	0.000	
117	   C	14.515	2.212	31.723	C.2	14	ALA735	0.000	
118	   O	15.296	2.242	32.680	O.2	14	ALA735	0.000	
119	  CB	15.280	1.260	29.519	C.3	14	ALA735	0.000	
120	   N	13.240	1.231	35.366	N.am	15	TYR738	0.000	
121	  CA	14.173	0.430	36.153	C.3	15	TYR738	0.000	
122	   C	15.430	1.206	36.533	C.2	15	TYR738	0.000	
123	   O	15.936	1.058	37.652	O.2	15	TYR738	0.000	
124	  CB	14.549	-0.833	35.379	C.3	15	TYR738	0.000	
125	  CG	15.526	-1.724	36.119	C.2	15	TYR738	0.000	
126	 CD1	15.104	-2.495	37.194	C.2	15	TYR738	0.000	
127	 CD2	16.866	-1.809	35.732	C.2	15	TYR738	0.000	
128	 CE1	15.996	-3.315	37.894	C.2	15	TYR738	0.000	
129	 CE2	17.759	-2.633	36.412	C.2	15	TYR738	0.000	
130	  CZ	17.315	-3.378	37.493	C.2	15	TYR738	0.000	
131	  OH	18.202	-4.189	38.175	O.3	15	TYR738	0.000	
132	   N	15.966	2.019	35.626	N.am	16	ASN739	0.000	
133	  CA	17.212	2.729	35.870	C.3	16	ASN739	0.000	
134	   C	16.942	4.148	36.360	C.2	16	ASN739	0.000	
135	   O	15.877	4.724	36.104	O.2	16	ASN739	0.000	
136	  CB	18.073	2.777	34.607	C.3	16	ASN739	0.000	
137	  CG	18.434	1.392	34.093	C.2	16	ASN739	0.000	
138	 ND2	17.702	0.908	33.082	N.pl3	16	ASN739	0.000	
139	 OD1	19.358	0.768	34.594	O.2	16	ASN739	0.000	
140	   N	22.092	4.173	30.728	N.am	17	ILE745	0.000	
141	  CA	21.064	3.437	29.994	C.3	17	ILE745	0.000	
142	   C	19.788	4.264	29.902	C.2	17	ILE745	0.000	
143	   O	19.124	4.298	28.858	O.2	17	ILE745	0.000	
144	  CB	20.822	2.061	30.648	C.3	17	ILE745	0.000	
145	 CG1	22.050	1.160	30.445	C.3	17	ILE745	0.000	
146	 CG2	19.571	1.417	30.088	C.3	17	ILE745	0.000	
147	 CD1	22.107	-0.071	31.337	C.3	17	ILE745	0.000	
@<TRIPOS>BOND
1 1 2 1
2 2 3 1
3 2 5 1
4 3 4 2
5 3 9 1
6 5 6 1
7 5 7 1
8 6 8 1
9 9 10 1
10 10 11 1
11 10 13 1
12 11 12 2
13 11 20 1
14 13 14 1
15 14 15 2
16 14 16 1
17 15 17 1
18 16 18 2
19 17 19 2
20 18 19 1
21 20 21 1
22 21 22 1
23 21 24 1
24 22 23 2
25 22 28 1
26 24 25 1
27 25 26 1
28 25 27 1
29 28 29 1
30 29 30 1
31 29 32 1
32 30 31 2
33 30 39 1
34 32 33 1
35 33 34 1
36 34 35 1
37 35 36 1
38 36 37 2
39 36 38 1
40 39 40 1
41 40 41 1
42 40 43 1
43 41 42 2
44 41 47 1
45 43 44 1
46 44 45 1
47 44 46 1
48 47 48 1
49 47 53 1
50 48 49 1
51 48 51 1
52 49 50 2
53 51 52 1
54 52 53 1
55 54 55 1
56 55 56 1
57 55 58 1
58 56 57 2
59 56 63 1
60 58 59 1
61 59 60 1
62 60 61 2
63 60 62 1
64 63 64 1
65 64 65 1
66 64 67 1
67 65 66 2
68 67 68 1
69 68 69 1
70 68 70 1
71 71 72 1
72 72 73 1
73 72 75 1
74 73 74 2
75 75 76 1
76 76 77 2
77 76 78 1
78 77 79 1
79 78 80 2
80 79 81 2
81 80 81 1
82 81 82 1
83 83 84 1
84 84 85 1
85 84 87 1
86 85 86 2
87 85 91 1
88 87 88 1
89 88 89 1
90 89 90 1
91 91 92 1
92 92 93 1
93 92 95 1
94 93 94 2
95 95 96 1
96 96 97 2
97 96 98 1
98 99 100 1
99 100 101 1
100 100 103 1
101 101 102 2
102 103 104 1
103 104 105 1
104 105 106 1
105 107 108 1
106 108 109 1
107 108 111 1
108 109 110 2
109 109 115 1
110 111 112 1
111 112 113 1
112 112 114 2
113 115 116 1
114 116 117 1
115 116 119 1
116 117 118 2
117 120 121 1
118 121 122 1
119 121 124 1
120 122 123 2
121 122 132 1
122 124 125 1
123 125 126 2
124 125 127 1
125 126 128 1
126 127 129 2
127 128 130 2
128 129 130 1
129 130 131 1
130 132 133 1
131 133 134 1
132 133 136 1
133 134 135 2
134 136 137 1
135 137 138 1
136 137 139 2
137 140 141 1
138 141 142 1
139 141 144 1
140 142 143 2
141 144 145 1
142 144 146 1
143 145 147 1
@<TRIPOS>SUBSTRUCTURE
1	ILE683	1	RESIDUE	1 B	ILE
2	PHE684	9	RESIDUE	1 B	PHE
3	LEU685	20	RESIDUE	1 B	LEU
4	ARG686	28	RESIDUE	1 B	ARG
5	LEU687	39	RESIDUE	1 B	LEU
6	PRO688	47	RESIDUE	1 B	PRO
7	GLU692	54	RESIDUE	1 B	GLU
8	LEU693	63	RESIDUE	1 B	LEU
9	TYR696	71	RESIDUE	1 B	TYR
10	MET704	83	RESIDUE	1 B	MET
11	ASP705	91	RESIDUE	1 B	ASP
12	MET731	99	RESIDUE	1 B	MET
13	ASN734	107	RESIDUE	1 B	ASN
14	ALA735	115	RESIDUE	1 B	ALA
15	TYR738	120	RESIDUE	1 B	TYR
16	ASN739	132	RESIDUE	1 B	ASN
17	ILE745	140	RESIDUE	1 B	ILE
