# created with PyMOL 2.5.2
@<TRIPOS>MOLECULE
BRD2_4A9J_TargetProtein
135 131 15              
SMALL
USER_CHARGES
@<TRIPOS>ATOM
1	   N	12.683	14.523	-4.630	N.am	1	TRP97	0.000	
2	  CA	12.081	13.927	-5.839	C.3	1	TRP97	0.000	
3	   C	12.942	12.863	-6.550	C.2	1	TRP97	0.000	
4	   O	12.401	11.871	-7.039	O.2	1	TRP97	0.000	
5	  CB	11.577	15.008	-6.824	C.3	1	TRP97	0.000	
6	  CG	12.647	15.879	-7.393	C.2	1	TRP97	0.000	
7	 CD1	13.090	17.074	-6.893	C.2	1	TRP97	0.000	
8	 CD2	13.431	15.615	-8.558	C.2	1	TRP97	0.000	
9	 CE2	14.328	16.697	-8.712	C.2	1	TRP97	0.000	
10	 CE3	13.465	14.567	-9.488	C.2	1	TRP97	0.000	
11	 NE1	14.097	17.575	-7.686	N.pl3	1	TRP97	0.000	
12	 CZ2	15.247	16.760	-9.759	C.2	1	TRP97	0.000	
13	 CZ3	14.380	14.630	-10.528	C.2	1	TRP97	0.000	
14	 CH2	15.257	15.720	-10.657	C.2	1	TRP97	0.000	
15	   N	14.276	13.040	-6.603	N.am	2	PRO98	0.000	
16	  CA	15.044	11.965	-7.260	C.3	2	PRO98	0.000	
17	   C	15.094	10.648	-6.467	C.2	2	PRO98	0.000	
18	   O	15.529	9.633	-7.013	O.2	2	PRO98	0.000	
19	  CB	16.457	12.562	-7.391	C.3	2	PRO98	0.000	
20	  CG	16.298	14.049	-7.122	C.3	2	PRO98	0.000	
21	  CD	15.165	14.122	-6.146	C.3	2	PRO98	0.000	
22	   N	14.647	10.673	-5.207	N.am	3	PHE99	0.000	
23	  CA	14.758	9.543	-4.291	C.3	3	PHE99	0.000	
24	   C	13.407	8.944	-3.912	C.2	3	PHE99	0.000	
25	   O	13.362	8.014	-3.124	O.2	3	PHE99	0.000	
26	  CB	15.468	9.986	-3.011	C.3	3	PHE99	0.000	
27	  CG	16.814	10.587	-3.251	C.2	3	PHE99	0.000	
28	 CD1	17.929	9.775	-3.410	C.2	3	PHE99	0.000	
29	 CD2	16.967	11.966	-3.359	C.2	3	PHE99	0.000	
30	 CE1	19.183	10.336	-3.655	C.2	3	PHE99	0.000	
31	 CE2	18.222	12.526	-3.596	C.2	3	PHE99	0.000	
32	  CZ	19.326	11.704	-3.738	C.2	3	PHE99	0.000	
33	   N	11.322	7.265	-5.742	N.am	4	GLN101	0.000	
34	  CA	11.036	6.025	-6.458	C.3	4	GLN101	0.000	
35	   C	12.369	5.381	-6.826	C.2	4	GLN101	0.000	
36	   O	13.383	6.076	-6.871	O.2	4	GLN101	0.000	
37	  CB	10.207	6.304	-7.722	C.3	4	GLN101	0.000	
38	  CG	10.871	7.228	-8.750	C.3	4	GLN101	0.000	
39	  CD	11.053	8.662	-8.241	C.2	4	GLN101	0.000	
40	 NE2	12.292	9.142	-8.267	N.pl3	4	GLN101	0.000	
41	 OE1	10.081	9.330	-7.845	O.2	4	GLN101	0.000	
42	   N	15.551	4.047	-8.786	N.am	5	VAL103	0.000	
43	  CA	16.249	4.521	-9.978	C.3	5	VAL103	0.000	
44	   C	15.789	3.708	-11.200	C.2	5	VAL103	0.000	
45	   O	15.850	2.473	-11.206	O.2	5	VAL103	0.000	
46	  CB	17.783	4.415	-9.828	C.3	5	VAL103	0.000	
47	 CG1	18.482	4.768	-11.143	C.3	5	VAL103	0.000	
48	 CG2	18.273	5.321	-8.695	C.3	5	VAL103	0.000	
49	   N	15.130	5.010	-18.184	N.am	6	LYS107	0.000	
50	  CA	14.688	6.404	-18.239	C.3	6	LYS107	0.000	
51	   C	15.837	7.398	-18.073	C.2	6	LYS107	0.000	
52	   O	15.889	8.416	-18.768	O.2	6	LYS107	0.000	
53	  CB	13.639	6.651	-17.147	C.3	6	LYS107	0.000	
54	  CG	13.163	8.089	-17.019	C.3	6	LYS107	0.000	
55	  CD	12.250	8.249	-15.820	C.3	6	LYS107	0.000	
56	  CE	12.022	9.711	-15.502	C.3	6	LYS107	0.000	
57	  NZ	11.342	9.894	-14.189	N.4	6	LYS107	0.000	
58	   N	16.746	7.105	-17.146	N.am	7	LEU108	0.000	
59	  CA	17.829	8.030	-16.801	C.3	7	LEU108	0.000	
60	   C	19.074	7.831	-17.674	C.2	7	LEU108	0.000	
61	   O	20.028	8.613	-17.594	O.2	7	LEU108	0.000	
62	  CB	18.178	7.896	-15.310	C.3	7	LEU108	0.000	
63	  CG	17.030	8.214	-14.336	C.3	7	LEU108	0.000	
64	 CD1	17.405	7.902	-12.882	C.3	7	LEU108	0.000	
65	 CD2	16.569	9.668	-14.468	C.3	7	LEU108	0.000	
66	   N	21.241	5.116	-17.750	N.am	8	LEU110	0.000	
67	  CA	22.317	4.616	-16.894	C.3	8	LEU110	0.000	
68	   C	22.482	3.098	-17.066	C.2	8	LEU110	0.000	
69	   O	22.129	2.335	-16.171	O.2	8	LEU110	0.000	
70	  CB	22.000	4.944	-15.426	C.3	8	LEU110	0.000	
71	  CG	21.622	6.392	-15.098	C.3	8	LEU110	0.000	
72	 CD1	21.205	6.519	-13.627	C.3	8	LEU110	0.000	
73	 CD2	22.760	7.346	-15.439	C.3	8	LEU110	0.000	
74	   N	24.101	1.112	-14.240	N.am	9	TYR113	0.000	
75	  CA	23.649	1.380	-12.872	C.3	9	TYR113	0.000	
76	   C	23.536	0.108	-12.032	C.2	9	TYR113	0.000	
77	   O	24.065	0.046	-10.925	O.2	9	TYR113	0.000	
78	  CB	22.322	2.151	-12.827	C.3	9	TYR113	0.000	
79	  CG	21.976	2.562	-11.411	C.2	9	TYR113	0.000	
80	 CD1	22.536	3.710	-10.839	C.2	9	TYR113	0.000	
81	 CD2	21.142	1.773	-10.618	C.2	9	TYR113	0.000	
82	 CE1	22.244	4.075	-9.517	C.2	9	TYR113	0.000	
83	 CE2	20.850	2.127	-9.299	C.2	9	TYR113	0.000	
84	  CZ	21.395	3.281	-8.757	C.2	9	TYR113	0.000	
85	  OH	21.106	3.624	-7.454	O.3	9	TYR113	0.000	
86	   N	23.963	6.439	-3.973	N.am	10	CYS152	0.000	
87	  CA	24.045	7.681	-4.705	C.3	10	CYS152	0.000	
88	   C	25.488	8.198	-4.758	C.2	10	CYS152	0.000	
89	   O	25.972	8.568	-5.829	O.2	10	CYS152	0.000	
90	  CB	23.090	8.707	-4.091	C.3	10	CYS152	0.000	
91	  SG	23.059	10.277	-4.932	S.3	10	CYS152	0.000	
92	   N	27.739	5.641	-7.015	N.am	11	TYR155	0.000	
93	  CA	27.489	5.609	-8.450	C.3	11	TYR155	0.000	
94	   C	27.849	6.916	-9.154	C.2	11	TYR155	0.000	
95	   O	28.487	6.912	-10.208	O.2	11	TYR155	0.000	
96	  CB	26.030	5.249	-8.764	C.3	11	TYR155	0.000	
97	  CG	25.800	5.247	-10.255	C.2	11	TYR155	0.000	
98	 CD1	26.284	4.212	-11.044	C.2	11	TYR155	0.000	
99	 CD2	25.175	6.318	-10.884	C.2	11	TYR155	0.000	
100	 CE1	26.124	4.225	-12.420	C.2	11	TYR155	0.000	
101	 CE2	25.009	6.339	-12.261	C.2	11	TYR155	0.000	
102	  CZ	25.492	5.291	-13.022	C.2	11	TYR155	0.000	
103	  OH	25.325	5.305	-14.384	O.3	11	TYR155	0.000	
104	   N	27.430	8.031	-8.572	N.am	12	ASN156	0.000	
105	  CA	27.525	9.329	-9.237	C.3	12	ASN156	0.000	
106	   C	28.894	9.997	-9.115	C.2	12	ASN156	0.000	
107	   O	29.717	9.610	-8.289	O.2	12	ASN156	0.000	
108	  CB	26.405	10.235	-8.724	C.3	12	ASN156	0.000	
109	  CG	25.039	9.702	-9.094	C.2	12	ASN156	0.000	
110	 ND2	24.307	9.200	-8.108	N.pl3	12	ASN156	0.000	
111	 OD1	24.659	9.708	-10.273	O.2	12	ASN156	0.000	
112	   N	24.920	17.259	-9.090	N.am	13	ASP161	0.000	
113	  CA	23.915	17.859	-8.208	C.3	13	ASP161	0.000	
114	   C	23.259	16.844	-7.272	C.2	13	ASP161	0.000	
115	   O	22.963	17.166	-6.114	O.2	13	ASP161	0.000	
116	  CB	22.808	18.557	-9.015	C.3	13	ASP161	0.000	
117	  CG	23.278	19.832	-9.700	C.2	13	ASP161	0.000	
118	 OD1	24.432	20.272	-9.505	O.co2	13	ASP161	0.000	
119	 OD2	22.466	20.408	-10.452	O.co2	13	ASP161	0.000	
120	   N	23.025	15.626	-7.764	N.am	14	ILE162	0.000	
121	  CA	22.316	14.623	-6.978	C.3	14	ILE162	0.000	
122	   C	23.058	14.267	-5.690	C.2	14	ILE162	0.000	
123	   O	22.440	13.979	-4.671	O.2	14	ILE162	0.000	
124	  CB	22.014	13.341	-7.786	C.3	14	ILE162	0.000	
125	 CG1	20.951	12.526	-7.043	C.3	14	ILE162	0.000	
126	 CG2	23.298	12.545	-8.076	C.3	14	ILE162	0.000	
127	 CD1	20.243	11.543	-7.886	C.3	14	ILE162	0.000	
128	   N	22.194	16.942	-3.256	N.am	15	MET165	0.000	
129	  CA	20.828	16.700	-2.820	C.3	15	MET165	0.000	
130	   C	20.771	15.588	-1.778	C.2	15	MET165	0.000	
131	   O	20.134	15.742	-0.733	O.2	15	MET165	0.000	
132	  CB	19.950	16.402	-4.034	C.3	15	MET165	0.000	
133	  CG	19.847	17.596	-4.982	C.3	15	MET165	0.000	
134	  SD	19.137	17.233	-6.598	S.3	15	MET165	0.000	
135	  CE	17.392	17.320	-6.194	C.3	15	MET165	0.000	
@<TRIPOS>BOND
1 1 2 1
2 2 3 1
3 2 5 1
4 3 4 2
5 3 15 1
6 5 6 1
7 6 7 2
8 6 8 1
9 7 11 1
10 8 9 2
11 8 10 1
12 9 12 1
13 10 13 2
14 9 11 1
15 12 14 2
16 13 14 1
17 15 16 1
18 15 21 1
19 16 17 1
20 16 19 1
21 17 18 2
22 17 22 1
23 19 20 1
24 20 21 1
25 22 23 1
26 23 24 1
27 23 26 1
28 24 25 2
29 26 27 1
30 27 28 2
31 27 29 1
32 28 30 1
33 29 31 2
34 30 32 2
35 31 32 1
36 33 34 1
37 34 35 1
38 34 37 1
39 35 36 2
40 37 38 1
41 38 39 1
42 39 40 1
43 39 41 2
44 42 43 1
45 43 44 1
46 43 46 1
47 44 45 2
48 46 47 1
49 46 48 1
50 49 50 1
51 50 51 1
52 50 53 1
53 51 52 2
54 51 58 1
55 53 54 1
56 54 55 1
57 55 56 1
58 56 57 1
59 58 59 1
60 59 60 1
61 59 62 1
62 60 61 2
63 62 63 1
64 63 64 1
65 63 65 1
66 66 67 1
67 67 68 1
68 67 70 1
69 68 69 2
70 70 71 1
71 71 72 1
72 71 73 1
73 74 75 1
74 75 76 1
75 75 78 1
76 76 77 2
77 78 79 1
78 79 80 2
79 79 81 1
80 80 82 1
81 81 83 2
82 82 84 2
83 83 84 1
84 84 85 1
85 86 87 1
86 87 88 1
87 87 90 1
88 88 89 2
89 90 91 1
90 92 93 1
91 93 94 1
92 93 96 1
93 94 95 2
94 94 104 1
95 96 97 1
96 97 98 2
97 97 99 1
98 98 100 1
99 99 101 2
100 100 102 2
101 101 102 1
102 102 103 1
103 104 105 1
104 105 106 1
105 105 108 1
106 106 107 2
107 108 109 1
108 109 110 1
109 109 111 2
110 112 113 1
111 113 114 1
112 113 116 1
113 114 115 2
114 114 120 1
115 116 117 1
116 117 118 2
117 117 119 1
118 120 121 1
119 121 122 1
120 121 124 1
121 122 123 2
122 124 125 1
123 124 126 1
124 125 127 1
125 128 129 1
126 129 130 1
127 129 132 1
128 130 131 2
129 132 133 1
130 133 134 1
131 134 135 1
@<TRIPOS>SUBSTRUCTURE
1	TRP97	1	RESIDUE	1 B	TRP
2	PRO98	15	RESIDUE	1 B	PRO
3	PHE99	22	RESIDUE	1 B	PHE
4	GLN101	33	RESIDUE	1 B	GLN
5	VAL103	42	RESIDUE	1 B	VAL
6	LYS107	49	RESIDUE	1 B	LYS
7	LEU108	58	RESIDUE	1 B	LEU
8	LEU110	66	RESIDUE	1 B	LEU
9	TYR113	74	RESIDUE	1 B	TYR
10	CYS152	86	RESIDUE	1 B	CYS
11	TYR155	92	RESIDUE	1 B	TYR
12	ASN156	104	RESIDUE	1 B	ASN
13	ASP161	112	RESIDUE	1 B	ASP
14	ILE162	120	RESIDUE	1 B	ILE
15	MET165	128	RESIDUE	1 B	MET
