# created with PyMOL 2.5.2
@<TRIPOS>MOLECULE
ER_1GWQ_TargetProtein
145 133 18              
SMALL
USER_CHARGES
@<TRIPOS>ATOM
1	   N	-2.257	4.956	33.927	N.am	1	MET343	0.000	
2	  CA	-1.853	5.656	32.711	C.3	1	MET343	0.000	
3	   C	-1.811	7.154	32.986	C.2	1	MET343	0.000	
4	   O	-1.064	7.902	32.380	O.2	1	MET343	0.000	
5	  CB	-2.766	5.377	31.532	C.3	1	MET343	0.000	
6	  CG	-2.546	4.024	30.866	C.3	1	MET343	0.000	
7	  SD	-0.988	3.933	29.959	S.3	1	MET343	0.000	
8	  CE	-1.141	5.403	28.952	C.3	1	MET343	0.000	
9	   N	1.758	7.827	34.903	N.am	2	LEU346	0.000	
10	  CA	2.911	7.688	34.032	C.3	2	LEU346	0.000	
11	   C	2.981	8.747	32.931	C.2	2	LEU346	0.000	
12	   O	4.011	9.223	32.467	O.2	2	LEU346	0.000	
13	  CB	2.912	6.302	33.420	C.3	2	LEU346	0.000	
14	  CG	2.883	5.003	34.214	C.3	2	LEU346	0.000	
15	 CD1	3.147	3.882	33.198	C.3	2	LEU346	0.000	
16	 CD2	3.834	4.898	35.379	C.3	2	LEU346	0.000	
17	   N	1.813	9.174	32.501	N.am	3	THR347	0.000	
18	  CA	1.662	10.166	31.439	C.3	3	THR347	0.000	
19	   C	1.864	11.544	31.995	C.2	3	THR347	0.000	
20	   O	2.452	12.408	31.344	O.2	3	THR347	0.000	
21	  CB	0.311	9.815	30.812	C.3	3	THR347	0.000	
22	 CG2	-0.732	10.863	30.967	C.3	3	THR347	0.000	
23	 OG1	0.543	9.448	29.444	O.3	3	THR347	0.000	
24	   N	3.759	11.987	34.591	N.am	4	LEU349	0.000	
25	  CA	5.199	12.058	34.868	C.3	4	LEU349	0.000	
26	   C	5.973	12.360	33.580	C.2	4	LEU349	0.000	
27	   O	6.870	13.232	33.557	O.2	4	LEU349	0.000	
28	  CB	5.722	10.848	35.596	C.3	4	LEU349	0.000	
29	  CG	7.227	10.790	35.877	C.3	4	LEU349	0.000	
30	 CD1	7.668	12.003	36.679	C.3	4	LEU349	0.000	
31	 CD2	7.548	9.450	36.538	C.3	4	LEU349	0.000	
32	   N	5.537	11.673	32.509	N.am	5	ALA350	0.000	
33	  CA	6.175	11.894	31.214	C.3	5	ALA350	0.000	
34	   C	6.078	13.327	30.725	C.2	5	ALA350	0.000	
35	   O	7.125	13.876	30.354	O.2	5	ALA350	0.000	
36	  CB	5.602	10.927	30.169	C.3	5	ALA350	0.000	
37	   N	8.390	15.500	32.672	N.am	6	GLU353	0.000	
38	  CA	9.762	15.186	32.305	C.3	6	GLU353	0.000	
39	   C	10.097	15.711	30.920	C.2	6	GLU353	0.000	
40	   O	11.217	16.183	30.644	O.2	6	GLU353	0.000	
41	  CB	10.070	13.711	32.418	C.3	6	GLU353	0.000	
42	  CG	10.042	13.081	33.778	C.3	6	GLU353	0.000	
43	  CD	10.475	11.623	33.614	C.2	6	GLU353	0.000	
44	 OE1	11.706	11.450	33.609	O.co2	6	GLU353	0.000	
45	 OE2	9.640	10.703	33.472	O.co2	6	GLU353	0.000	
46	   N	10.860	9.322	23.637	N.am	7	LEU384	0.000	
47	  CA	10.457	8.144	24.413	C.3	7	LEU384	0.000	
48	   C	11.618	7.232	24.772	C.2	7	LEU384	0.000	
49	   O	11.603	6.636	25.835	O.2	7	LEU384	0.000	
50	  CB	9.276	7.452	23.757	C.3	7	LEU384	0.000	
51	  CG	8.591	6.346	24.582	C.3	7	LEU384	0.000	
52	 CD1	8.076	6.855	25.946	C.3	7	LEU384	0.000	
53	 CD2	7.418	5.763	23.767	C.3	7	LEU384	0.000	
54	   N	13.243	8.864	27.896	N.am	8	LEU387	0.000	
55	  CA	12.525	8.618	29.141	C.3	8	LEU387	0.000	
56	   C	12.725	7.152	29.538	C.2	8	LEU387	0.000	
57	   O	12.956	6.859	30.717	O.2	8	LEU387	0.000	
58	  CB	11.024	8.861	29.130	C.3	8	LEU387	0.000	
59	  CG	10.562	10.300	28.861	C.3	8	LEU387	0.000	
60	 CD1	9.032	10.341	28.761	C.3	8	LEU387	0.000	
61	 CD2	11.083	11.204	29.948	C.3	8	LEU387	0.000	
62	   N	12.674	6.297	28.538	N.am	9	MET388	0.000	
63	  CA	12.849	4.870	28.825	C.3	9	MET388	0.000	
64	   C	14.229	4.548	29.326	C.2	9	MET388	0.000	
65	   O	14.368	3.775	30.289	O.2	9	MET388	0.000	
66	  CB	12.444	4.093	27.570	C.3	9	MET388	0.000	
67	  CG	10.961	3.775	27.572	C.3	9	MET388	0.000	
68	  SD	10.543	2.903	26.066	S.3	9	MET388	0.000	
69	  CE	8.833	2.520	26.344	C.3	9	MET388	0.000	
70	   N	14.494	5.565	32.972	N.am	10	LEU391	0.000	
71	  CA	13.696	4.622	33.739	C.3	10	LEU391	0.000	
72	   C	14.506	3.369	34.010	C.2	10	LEU391	0.000	
73	   O	14.654	2.983	35.175	O.2	10	LEU391	0.000	
74	  CB	12.407	4.302	32.990	C.3	10	LEU391	0.000	
75	  CG	11.580	3.129	33.474	C.3	10	LEU391	0.000	
76	 CD1	11.213	3.362	34.944	C.3	10	LEU391	0.000	
77	 CD2	10.308	2.912	32.676	C.3	10	LEU391	0.000	
78	   N	17.254	3.987	36.639	N.am	11	ARG394	0.000	
79	  CA	16.677	4.207	37.925	C.3	11	ARG394	0.000	
80	   C	16.233	2.906	38.594	C.2	11	ARG394	0.000	
81	   O	16.291	2.890	39.824	O.2	11	ARG394	0.000	
82	  CB	15.463	5.161	37.871	C.3	11	ARG394	0.000	
83	  CG	15.804	6.634	37.626	C.3	11	ARG394	0.000	
84	  CD	14.628	7.527	37.921	C.3	11	ARG394	0.000	
85	  NE	13.379	7.081	37.306	N.pl3	11	ARG394	0.000	
86	  CZ	13.057	7.508	36.086	C.cat	11	ARG394	0.000	
87	 NH1	13.898	8.350	35.471	N.pl3	11	ARG394	0.000	
88	 NH2	11.952	7.215	35.434	N.pl3	11	ARG394	0.000	
89	   N	9.435	4.456	38.332	N.am	12	PHE404	0.000	
90	  CA	9.062	5.591	37.491	C.3	12	PHE404	0.000	
91	   C	9.536	6.849	38.212	C.2	12	PHE404	0.000	
92	   O	10.002	7.821	37.608	O.2	12	PHE404	0.000	
93	  CB	7.611	5.480	37.119	C.3	12	PHE404	0.000	
94	  CG	7.239	4.551	36.002	C.2	12	PHE404	0.000	
95	 CD1	7.203	4.953	34.678	C.2	12	PHE404	0.000	
96	 CD2	6.903	3.238	36.289	C.2	12	PHE404	0.000	
97	 CE1	6.845	4.070	33.669	C.2	12	PHE404	0.000	
98	 CE2	6.550	2.352	35.291	C.2	12	PHE404	0.000	
99	  CZ	6.516	2.767	33.972	C.2	12	PHE404	0.000	
100	   N	0.331	-3.172	28.584	N.am	13	MET421	0.000	
101	  CA	1.487	-2.704	29.291	C.3	13	MET421	0.000	
102	   C	2.439	-3.773	29.789	C.2	13	MET421	0.000	
103	   O	3.629	-3.445	29.792	O.2	13	MET421	0.000	
104	  CB	1.092	-1.830	30.506	C.3	13	MET421	0.000	
105	  CG	2.253	-0.980	31.012	C.3	13	MET421	0.000	
106	  SD	2.531	0.486	29.952	S.3	13	MET421	0.000	
107	  CE	4.291	0.344	29.817	C.3	13	MET421	0.000	
108	   N	5.399	-4.408	27.624	N.am	14	ILE424	0.000	
109	  CA	6.288	-3.279	27.662	C.3	14	ILE424	0.000	
110	   C	7.137	-3.370	28.918	C.2	14	ILE424	0.000	
111	   O	8.377	-3.344	28.853	O.2	14	ILE424	0.000	
112	  CB	5.533	-1.929	27.702	C.3	14	ILE424	0.000	
113	 CG1	4.369	-1.921	26.724	C.3	14	ILE424	0.000	
114	 CG2	6.539	-0.790	27.498	C.3	14	ILE424	0.000	
115	 CD1	4.596	-1.638	25.276	C.3	14	ILE424	0.000	
116	   N	6.093	1.390	22.597	N.am	15	GLY521	0.000	
117	  CA	5.485	2.276	23.582	C.3	15	GLY521	0.000	
118	   C	4.740	3.352	22.792	C.2	15	GLY521	0.000	
119	   O	3.622	3.699	23.183	O.2	15	GLY521	0.000	
120	   N	1.593	1.767	21.723	N.am	16	HIE524	0.000	
121	  CA	0.782	1.601	22.911	C.3	16	HIE524	0.000	
122	   C	0.203	2.932	23.369	C.2	16	HIE524	0.000	
123	   O	-0.970	3.023	23.738	O.2	16	HIE524	0.000	
124	  CB	1.599	0.910	24.003	C.3	16	HIE524	0.000	
125	  CG	0.689	0.601	25.153	C.2	16	HIE524	0.000	
126	 CD2	-0.080	-0.487	25.401	C.2	16	HIE524	0.000	
127	 ND1	0.481	1.504	26.191	N.2	16	HIE524	0.000	
128	 CE1	-0.376	0.961	27.040	C.2	16	HIE524	0.000	
129	 NE2	-0.726	-0.234	26.588	N.pl3	16	HIE524	0.000	
130	   N	0.989	3.994	23.326	N.am	17	LEU525	0.000	
131	  CA	0.563	5.310	23.740	C.3	17	LEU525	0.000	
132	   C	-0.465	5.892	22.791	C.2	17	LEU525	0.000	
133	   O	-1.339	6.677	23.143	O.2	17	LEU525	0.000	
134	  CB	1.766	6.266	23.864	C.3	17	LEU525	0.000	
135	  CG	1.432	7.552	24.616	C.3	17	LEU525	0.000	
136	 CD1	0.851	7.193	25.981	C.3	17	LEU525	0.000	
137	 CD2	2.619	8.468	24.757	C.3	17	LEU525	0.000	
138	   N	-3.811	4.004	23.542	N.am	18	MET528	0.000	
139	  CA	-4.375	4.625	24.733	C.3	18	MET528	0.000	
140	   C	-5.007	5.965	24.386	C.2	18	MET528	0.000	
141	   O	-6.080	6.297	24.893	O.2	18	MET528	0.000	
142	  CB	-3.294	4.768	25.806	C.3	18	MET528	0.000	
143	  CG	-2.680	3.422	26.181	C.3	18	MET528	0.000	
144	  SD	-3.720	2.483	27.291	S.3	18	MET528	0.000	
145	  CE	-3.709	0.856	26.554	C.3	18	MET528	0.000	
@<TRIPOS>BOND
1 1 2 1
2 2 3 1
3 2 5 1
4 3 4 2
5 5 6 1
6 6 7 1
7 7 8 1
8 9 10 1
9 10 11 1
10 10 13 1
11 11 12 2
12 11 17 1
13 13 14 1
14 14 15 1
15 14 16 1
16 17 18 1
17 18 19 1
18 18 21 1
19 19 20 2
20 21 22 1
21 21 23 1
22 24 25 1
23 25 26 1
24 25 28 1
25 26 27 2
26 26 32 1
27 28 29 1
28 29 30 1
29 29 31 1
30 32 33 1
31 33 34 1
32 33 36 1
33 34 35 2
34 37 38 1
35 38 39 1
36 38 41 1
37 39 40 2
38 41 42 1
39 42 43 1
40 43 44 2
41 43 45 1
42 46 47 1
43 47 48 1
44 47 50 1
45 48 49 2
46 50 51 1
47 51 52 1
48 51 53 1
49 54 55 1
50 55 56 1
51 55 58 1
52 56 57 2
53 56 62 1
54 58 59 1
55 59 60 1
56 59 61 1
57 62 63 1
58 63 64 1
59 63 66 1
60 64 65 2
61 66 67 1
62 67 68 1
63 68 69 1
64 70 71 1
65 71 72 1
66 71 74 1
67 72 73 2
68 74 75 1
69 75 76 1
70 75 77 1
71 78 79 1
72 79 80 1
73 79 82 1
74 80 81 2
75 82 83 1
76 83 84 1
77 84 85 1
78 85 86 1
79 86 87 2
80 86 88 1
81 89 90 1
82 90 91 1
83 90 93 1
84 91 92 2
85 93 94 1
86 94 95 2
87 94 96 1
88 95 97 1
89 96 98 2
90 97 99 2
91 98 99 1
92 100 101 1
93 101 102 1
94 101 104 1
95 102 103 2
96 104 105 1
97 105 106 1
98 106 107 1
99 108 109 1
100 109 110 1
101 109 112 1
102 110 111 2
103 112 113 1
104 112 114 1
105 113 115 1
106 116 117 1
107 117 118 1
108 118 119 2
109 120 121 1
110 121 122 1
111 121 124 1
112 122 123 2
113 122 130 1
114 124 125 1
115 125 126 2
116 125 127 1
117 126 129 1
118 127 128 2
119 128 129 1
120 130 131 1
121 131 132 1
122 131 134 1
123 132 133 2
124 134 135 1
125 135 136 1
126 135 137 1
127 138 139 1
128 139 140 1
129 139 142 1
130 140 141 2
131 142 143 1
132 143 144 1
133 144 145 1
@<TRIPOS>SUBSTRUCTURE
1	MET343	1	RESIDUE	1 B	MET
2	LEU346	9	RESIDUE	1 B	LEU
3	THR347	17	RESIDUE	1 B	THR
4	LEU349	24	RESIDUE	1 B	LEU
5	ALA350	32	RESIDUE	1 B	ALA
6	GLU353	37	RESIDUE	1 B	GLU
7	LEU384	46	RESIDUE	1 B	LEU
8	LEU387	54	RESIDUE	1 B	LEU
9	MET388	62	RESIDUE	1 B	MET
10	LEU391	70	RESIDUE	1 B	LEU
11	ARG394	78	RESIDUE	1 B	ARG
12	PHE404	89	RESIDUE	1 B	PHE
13	MET421	100	RESIDUE	1 B	MET
14	ILE424	108	RESIDUE	1 B	ILE
15	GLY521	116	RESIDUE	1 B	GLY
16	HIE524	120	RESIDUE	1 B	HIE
17	LEU525	130	RESIDUE	1 B	LEU
18	MET528	138	RESIDUE	1 B	MET
