# created with PyMOL 2.5.2
@<TRIPOS>MOLECULE
VHL_5LLI_TargetProtein
158 158 16              
SMALL
USER_CHARGES
@<TRIPOS>ATOM
1	   N	16.320	61.554	99.541	N.am	1	ASN67	0.000	
2	  CA	14.955	61.003	99.569	C.3	1	ASN67	0.000	
3	   C	13.893	62.123	99.590	C.2	1	ASN67	0.000	
4	   O	13.257	62.393	100.619	O.2	1	ASN67	0.000	
5	  CB	14.771	60.019	100.735	C.3	1	ASN67	0.000	
6	  CG	13.500	59.190	100.607	C.2	1	ASN67	0.000	
7	 ND2	13.245	58.367	101.596	N.pl3	1	ASN67	0.000	
8	 OD1	12.752	59.303	99.642	O.2	1	ASN67	0.000	
9	   N	15.632	59.039	78.958	N.am	2	PHE76	0.000	
10	  CA	17.010	58.568	78.745	C.3	2	PHE76	0.000	
11	   C	17.185	58.362	77.234	C.2	2	PHE76	0.000	
12	   O	16.507	57.518	76.653	O.2	2	PHE76	0.000	
13	  CB	17.279	57.235	79.465	C.3	2	PHE76	0.000	
14	  CG	17.368	57.317	80.971	C.2	2	PHE76	0.000	
15	 CD1	17.429	58.529	81.647	C.2	2	PHE76	0.000	
16	 CD2	17.451	56.148	81.708	C.2	2	PHE76	0.000	
17	 CE1	17.554	58.572	83.022	C.2	2	PHE76	0.000	
18	 CE2	17.587	56.176	83.089	C.2	2	PHE76	0.000	
19	  CZ	17.641	57.394	83.754	C.2	2	PHE76	0.000	
20	   N	22.231	52.224	82.767	N.am	3	PRO86	0.000	
21	  CA	22.004	53.294	83.713	C.3	3	PRO86	0.000	
22	   C	22.228	52.795	85.135	C.2	3	PRO86	0.000	
23	   O	21.858	51.687	85.438	O.2	3	PRO86	0.000	
24	  CB	20.547	53.677	83.489	C.3	3	PRO86	0.000	
25	  CG	20.041	52.847	82.369	C.3	3	PRO86	0.000	
26	  CD	20.955	51.668	82.298	C.3	3	PRO86	0.000	
27	   N	21.733	54.065	89.235	N.am	4	TRP88	0.000	
28	  CA	21.182	54.969	90.246	C.3	4	TRP88	0.000	
29	   C	22.003	54.788	91.522	C.2	4	TRP88	0.000	
30	   O	22.291	53.654	91.901	O.2	4	TRP88	0.000	
31	  CB	19.702	54.617	90.523	C.3	4	TRP88	0.000	
32	  CG	19.058	55.407	91.640	C.2	4	TRP88	0.000	
33	 CD1	18.930	56.767	91.714	C.2	4	TRP88	0.000	
34	 CD2	18.430	54.882	92.826	C.2	4	TRP88	0.000	
35	 CE2	17.951	55.985	93.568	C.2	4	TRP88	0.000	
36	 CE3	18.226	53.584	93.336	C.2	4	TRP88	0.000	
37	 NE1	18.261	57.120	92.865	N.pl3	4	TRP88	0.000	
38	 CZ2	17.306	55.833	94.809	C.2	4	TRP88	0.000	
39	 CZ3	17.578	53.438	94.550	C.2	4	TRP88	0.000	
40	 CH2	17.133	54.555	95.278	C.2	4	TRP88	0.000	
41	   N	20.094	55.526	98.509	N.am	5	PHE91	0.000	
42	  CA	20.149	56.433	99.646	C.3	5	PHE91	0.000	
43	   C	21.344	56.188	100.569	C.2	5	PHE91	0.000	
44	   O	21.727	57.080	101.308	O.2	5	PHE91	0.000	
45	  CB	18.823	56.407	100.389	C.3	5	PHE91	0.000	
46	  CG	17.641	56.694	99.499	C.2	5	PHE91	0.000	
47	 CD1	17.622	57.836	98.695	C.2	5	PHE91	0.000	
48	 CD2	16.564	55.822	99.440	C.2	5	PHE91	0.000	
49	 CE1	16.547	58.112	97.862	C.2	5	PHE91	0.000	
50	 CE2	15.485	56.090	98.607	C.2	5	PHE91	0.000	
51	  CZ	15.481	57.240	97.810	C.2	5	PHE91	0.000	
52	   N	23.037	50.973	92.086	N.am	6	GLN96	0.000	
53	  CA	22.022	50.024	91.645	C.3	6	GLN96	0.000	
54	   C	21.870	50.073	90.111	C.2	6	GLN96	0.000	
55	   O	21.512	51.108	89.543	O.2	6	GLN96	0.000	
56	  CB	20.695	50.341	92.309	C.3	6	GLN96	0.000	
57	  CG	19.565	49.405	91.883	C.3	6	GLN96	0.000	
58	  CD	18.270	49.652	92.648	C.2	6	GLN96	0.000	
59	 NE2	17.134	49.407	91.993	N.pl3	6	GLN96	0.000	
60	 OE1	18.291	50.043	93.821	O.2	6	GLN96	0.000	
61	   N	20.252	49.412	86.394	N.am	7	TYR98	0.000	
62	  CA	18.894	49.408	85.811	C.3	7	TYR98	0.000	
63	   C	18.922	48.744	84.436	C.2	7	TYR98	0.000	
64	   O	20.011	48.431	83.921	O.2	7	TYR98	0.000	
65	  CB	18.332	50.837	85.735	C.3	7	TYR98	0.000	
66	  CG	17.580	51.221	86.993	C.2	7	TYR98	0.000	
67	 CD1	18.265	51.439	88.186	C.2	7	TYR98	0.000	
68	 CD2	16.191	51.327	87.014	C.2	7	TYR98	0.000	
69	 CE1	17.594	51.774	89.357	C.2	7	TYR98	0.000	
70	 CE2	15.504	51.675	88.190	C.2	7	TYR98	0.000	
71	  CZ	16.214	51.896	89.373	C.2	7	TYR98	0.000	
72	  OH	15.577	52.244	90.570	O.3	7	TYR98	0.000	
73	   N	17.740	48.482	83.841	N.am	8	PRO99	0.000	
74	  CA	17.728	47.825	82.524	C.3	8	PRO99	0.000	
75	   C	18.508	48.623	81.458	C.2	8	PRO99	0.000	
76	   O	18.618	49.856	81.547	O.2	8	PRO99	0.000	
77	  CB	16.230	47.729	82.195	C.3	8	PRO99	0.000	
78	  CG	15.559	47.663	83.529	C.3	8	PRO99	0.000	
79	  CD	16.381	48.581	84.411	C.3	8	PRO99	0.000	
80	   N	19.879	49.969	77.574	N.am	9	LEU101	0.000	
81	  CA	19.327	50.607	76.362	C.3	9	LEU101	0.000	
82	   C	20.182	50.299	75.138	C.2	9	LEU101	0.000	
83	   O	21.369	50.638	75.112	O.2	9	LEU101	0.000	
84	  CB	19.292	52.126	76.504	C.3	9	LEU101	0.000	
85	  CG	18.333	52.769	77.499	C.3	9	LEU101	0.000	
86	 CD1	19.058	53.063	78.794	C.3	9	LEU101	0.000	
87	 CD2	17.774	54.067	76.944	C.3	9	LEU101	0.000	
88	   N	13.961	55.824	76.355	N.am	10	ARG107	0.000	
89	  CA	12.995	55.301	77.338	C.3	10	ARG107	0.000	
90	   C	12.492	56.426	78.234	C.2	10	ARG107	0.000	
91	   O	13.287	57.169	78.796	O.2	10	ARG107	0.000	
92	  CB	13.648	54.252	78.240	C.3	10	ARG107	0.000	
93	  CG	14.241	53.027	77.571	C.3	10	ARG107	0.000	
94	  CD	13.270	51.877	77.551	C.3	10	ARG107	0.000	
95	  NE	13.882	50.662	77.020	N.pl3	10	ARG107	0.000	
96	  CZ	14.109	50.421	75.725	C.cat	10	ARG107	0.000	
97	 NH1	13.787	51.313	74.797	N.pl3	10	ARG107	0.000	
98	 NH2	14.673	49.275	75.352	N.pl3	10	ARG107	0.000	
99	   N	11.197	57.398	81.703	N.am	11	ILE109	0.000	
100	  CA	11.239	56.780	83.025	C.3	11	ILE109	0.000	
101	   C	10.814	57.736	84.106	C.2	11	ILE109	0.000	
102	   O	10.817	58.946	83.925	O.2	11	ILE109	0.000	
103	  CB	12.625	56.161	83.349	C.3	11	ILE109	0.000	
104	 CG1	13.740	57.211	83.393	C.3	11	ILE109	0.000	
105	 CG2	12.983	55.097	82.319	C.3	11	ILE109	0.000	
106	 CD1	14.069	57.730	84.776	C.3	11	ILE109	0.000	
107	   N	10.420	57.161	85.233	N.am	12	HIS110	0.000	
108	  CA	10.014	57.928	86.407	C.3	12	HIS110	0.000	
109	   C	11.164	57.937	87.404	C.2	12	HIS110	0.000	
110	   O	11.619	56.880	87.818	O.2	12	HIS110	0.000	
111	  CB	8.779	57.290	87.046	C.3	12	HIS110	0.000	
112	  CG	7.560	57.346	86.185	C.2	12	HIS110	0.000	
113	 CD2	6.659	56.394	85.850	C.2	12	HIS110	0.000	
114	 ND1	7.147	58.501	85.559	N.pl3	12	HIS110	0.000	
115	 CE1	6.046	58.259	84.873	C.2	12	HIS110	0.000	
116	 NE2	5.730	56.987	85.029	N.pl3	12	HIS110	0.000	
117	   N	11.619	59.124	87.791	N.am	13	SER111	0.000	
118	  CA	12.628	59.264	88.836	C.3	13	SER111	0.000	
119	   C	12.160	60.324	89.837	C.2	13	SER111	0.000	
120	   O	10.961	60.556	89.963	O.2	13	SER111	0.000	
121	  CB	13.985	59.603	88.207	C.3	13	SER111	0.000	
122	  OG	15.043	59.535	89.147	O.3	13	SER111	0.000	
123	   N	13.092	60.943	90.562	N.am	14	TYR112	0.000	
124	  CA	12.753	61.924	91.601	C.3	14	TYR112	0.000	
125	   C	13.771	63.056	91.634	C.2	14	TYR112	0.000	
126	   O	14.949	62.843	91.287	O.2	14	TYR112	0.000	
127	  CB	12.695	61.247	92.983	C.3	14	TYR112	0.000	
128	  CG	11.535	60.292	93.113	C.2	14	TYR112	0.000	
129	 CD1	11.657	58.965	92.740	C.2	14	TYR112	0.000	
130	 CD2	10.303	60.732	93.557	C.2	14	TYR112	0.000	
131	 CE1	10.584	58.094	92.816	C.2	14	TYR112	0.000	
132	 CE2	9.224	59.870	93.644	C.2	14	TYR112	0.000	
133	  CZ	9.368	58.550	93.265	C.2	14	TYR112	0.000	
134	  OH	8.294	57.690	93.350	O.3	14	TYR112	0.000	
135	   N	17.786	62.935	92.904	N.am	15	HIS115	0.000	
136	  CA	18.378	61.615	92.689	C.3	15	HIS115	0.000	
137	   C	19.577	61.653	91.739	C.2	15	HIS115	0.000	
138	   O	19.622	62.466	90.836	O.2	15	HIS115	0.000	
139	  CB	17.306	60.668	92.196	C.3	15	HIS115	0.000	
140	  CG	16.388	60.206	93.277	C.2	15	HIS115	0.000	
141	 CD2	16.085	60.748	94.482	C.2	15	HIS115	0.000	
142	 ND1	15.707	59.013	93.214	N.pl3	15	HIS115	0.000	
143	 CE1	15.004	58.852	94.324	C.2	15	HIS115	0.000	
144	 NE2	15.208	59.897	95.103	N.pl3	15	HIS115	0.000	
145	   N	22.359	59.828	89.014	N.am	16	TRP117	0.000	
146	  CA	22.491	58.814	87.971	C.3	16	TRP117	0.000	
147	   C	23.824	58.948	87.232	C.2	16	TRP117	0.000	
148	   O	24.316	60.057	87.026	O.2	16	TRP117	0.000	
149	  CB	21.407	59.029	86.936	C.3	16	TRP117	0.000	
150	  CG	20.017	58.719	87.369	C.2	16	TRP117	0.000	
151	 CD1	19.116	59.582	87.890	C.2	16	TRP117	0.000	
152	 CD2	19.350	57.454	87.256	C.2	16	TRP117	0.000	
153	 CE2	18.049	57.625	87.744	C.2	16	TRP117	0.000	
154	 CE3	19.727	56.194	86.776	C.2	16	TRP117	0.000	
155	 NE1	17.926	58.932	88.130	N.pl3	16	TRP117	0.000	
156	 CZ2	17.130	56.596	87.772	C.2	16	TRP117	0.000	
157	 CZ3	18.796	55.164	86.813	C.2	16	TRP117	0.000	
158	 CH2	17.518	55.379	87.291	C.2	16	TRP117	0.000	
@<TRIPOS>BOND
1 1 2 1
2 2 3 1
3 2 5 1
4 3 4 2
5 5 6 1
6 6 7 1
7 6 8 2
8 9 10 1
9 10 11 1
10 10 13 1
11 11 12 2
12 13 14 1
13 14 15 2
14 14 16 1
15 15 17 1
16 16 18 2
17 17 19 2
18 18 19 1
19 20 21 1
20 20 26 1
21 21 22 1
22 21 24 1
23 22 23 2
24 24 25 1
25 25 26 1
26 27 28 1
27 28 29 1
28 28 31 1
29 29 30 2
30 31 32 1
31 32 33 2
32 32 34 1
33 33 37 1
34 34 35 2
35 34 36 1
36 35 38 1
37 36 39 2
38 35 37 1
39 38 40 2
40 39 40 1
41 41 42 1
42 42 43 1
43 42 45 1
44 43 44 2
45 45 46 1
46 46 47 2
47 46 48 1
48 47 49 1
49 48 50 2
50 49 51 2
51 50 51 1
52 52 53 1
53 53 54 1
54 53 56 1
55 54 55 2
56 56 57 1
57 57 58 1
58 58 59 1
59 58 60 2
60 61 62 1
61 62 63 1
62 62 65 1
63 63 64 2
64 63 73 1
65 65 66 1
66 66 67 2
67 66 68 1
68 67 69 1
69 68 70 2
70 69 71 2
71 70 71 1
72 71 72 1
73 73 74 1
74 73 79 1
75 74 75 1
76 74 77 1
77 75 76 2
78 77 78 1
79 78 79 1
80 80 81 1
81 81 82 1
82 81 84 1
83 82 83 2
84 84 85 1
85 85 86 1
86 85 87 1
87 88 89 1
88 89 90 1
89 89 92 1
90 90 91 2
91 92 93 1
92 93 94 1
93 94 95 1
94 95 96 1
95 96 97 2
96 96 98 1
97 99 100 1
98 100 101 1
99 100 103 1
100 101 102 2
101 101 107 1
102 103 104 1
103 103 105 1
104 104 106 1
105 107 108 1
106 108 109 1
107 108 111 1
108 109 110 2
109 109 117 1
110 111 112 1
111 112 113 2
112 112 114 1
113 113 116 1
114 114 115 2
115 115 116 1
116 117 118 1
117 118 119 1
118 118 121 1
119 119 120 2
120 119 123 1
121 121 122 1
122 123 124 1
123 124 125 1
124 124 127 1
125 125 126 2
126 127 128 1
127 128 129 2
128 128 130 1
129 129 131 1
130 130 132 2
131 131 133 2
132 132 133 1
133 133 134 1
134 135 136 1
135 136 137 1
136 136 139 1
137 137 138 2
138 139 140 1
139 140 141 2
140 140 142 1
141 141 144 1
142 142 143 2
143 143 144 1
144 145 146 1
145 146 147 1
146 146 149 1
147 147 148 2
148 149 150 1
149 150 151 2
150 150 152 1
151 151 155 1
152 152 153 2
153 152 154 1
154 153 156 1
155 154 157 2
156 153 155 1
157 156 158 2
158 157 158 1
@<TRIPOS>SUBSTRUCTURE
1	ASN67	1	RESIDUE	1 B	ASN
2	PHE76	9	RESIDUE	1 B	PHE
3	PRO86	20	RESIDUE	1 B	PRO
4	TRP88	27	RESIDUE	1 B	TRP
5	PHE91	41	RESIDUE	1 B	PHE
6	GLN96	52	RESIDUE	1 B	GLN
7	TYR98	61	RESIDUE	1 B	TYR
8	PRO99	73	RESIDUE	1 B	PRO
9	LEU101	80	RESIDUE	1 B	LEU
10	ARG107	88	RESIDUE	1 B	ARG
11	ILE109	99	RESIDUE	1 B	ILE
12	HIS110	107	RESIDUE	1 B	HIS
13	SER111	117	RESIDUE	1 B	SER
14	TYR112	123	RESIDUE	1 B	TYR
15	HIS115	135	RESIDUE	1 B	HIS
16	TRP117	145	RESIDUE	1 B	TRP
