# created with PyMOL 2.5.2
@<TRIPOS>MOLECULE
PARP1_4RV6_TargetProtein
180 179 21              
SMALL
USER_CHARGES
@<TRIPOS>ATOM
1	   N	79.854	-4.664	123.217	N.am	1	GLN759	0.000	
2	  CA	81.130	-3.942	123.080	C.3	1	GLN759	0.000	
3	   C	81.616	-3.473	124.459	C.2	1	GLN759	0.000	
4	   O	82.746	-3.762	124.829	O.2	1	GLN759	0.000	
5	  CB	80.953	-2.750	122.133	C.3	1	GLN759	0.000	
6	  CG	82.241	-2.128	121.647	C.3	1	GLN759	0.000	
7	  CD	81.980	-0.940	120.757	C.2	1	GLN759	0.000	
8	 NE2	83.028	-0.154	120.544	N.pl3	1	GLN759	0.000	
9	 OE1	80.865	-0.734	120.226	O.2	1	GLN759	0.000	
10	   N	82.613	-6.376	126.721	N.am	2	ALA762	0.000	
11	  CA	83.817	-6.997	126.134	C.3	2	ALA762	0.000	
12	   C	85.059	-6.200	126.497	C.2	2	ALA762	0.000	
13	   O	86.071	-6.797	126.853	O.2	2	ALA762	0.000	
14	  CB	83.688	-7.123	124.617	C.3	2	ALA762	0.000	
15	   N	84.959	-4.863	126.457	N.am	3	GLU763	0.000	
16	  CA	86.038	-3.957	126.817	C.3	3	GLU763	0.000	
17	   C	86.338	-4.099	128.304	C.2	3	GLU763	0.000	
18	   O	87.509	-4.091	128.678	O.2	3	GLU763	0.000	
19	  CB	85.696	-2.511	126.443	C.3	3	GLU763	0.000	
20	  CG	85.788	-2.257	124.950	C.3	3	GLU763	0.000	
21	  CD	85.470	-0.841	124.519	C.2	3	GLU763	0.000	
22	 OE1	84.495	-0.647	123.755	O.co2	3	GLU763	0.000	
23	 OE2	86.221	0.077	124.920	O.co2	3	GLU763	0.000	
24	   N	88.383	-7.151	128.601	N.am	4	ASP766	0.000	
25	  CA	89.750	-6.870	128.142	C.3	4	ASP766	0.000	
26	   C	90.588	-6.357	129.296	C.2	4	ASP766	0.000	
27	   O	91.725	-6.793	129.483	O.2	4	ASP766	0.000	
28	  CB	89.783	-5.835	127.002	C.3	4	ASP766	0.000	
29	  CG	89.174	-6.225	125.668	C.2	4	ASP766	0.000	
30	 OD1	88.751	-7.403	125.519	O.co2	4	ASP766	0.000	
31	 OD2	89.114	-5.348	124.765	O.co2	4	ASP766	0.000	
32	   N	101.477	5.952	118.704	N.am	5	TRP861	0.000	
33	  CA	100.867	6.010	120.027	C.3	5	TRP861	0.000	
34	   C	99.915	4.850	120.306	C.2	5	TRP861	0.000	
35	   O	99.188	4.395	119.416	O.2	5	TRP861	0.000	
36	  CB	100.072	7.308	120.192	C.3	5	TRP861	0.000	
37	  CG	100.863	8.569	120.061	C.2	5	TRP861	0.000	
38	 CD1	100.774	9.490	119.060	C.2	5	TRP861	0.000	
39	 CD2	101.801	9.091	121.007	C.2	5	TRP861	0.000	
40	 CE2	102.259	10.326	120.502	C.2	5	TRP861	0.000	
41	 CE3	102.318	8.623	122.229	C.2	5	TRP861	0.000	
42	 NE1	101.600	10.555	119.323	N.pl3	5	TRP861	0.000	
43	 CZ2	103.212	11.098	121.173	C.2	5	TRP861	0.000	
44	 CZ3	103.248	9.397	122.901	C.2	5	TRP861	0.000	
45	 CH2	103.700	10.607	122.367	C.2	5	TRP861	0.000	
46	   N	99.897	4.403	121.568	N.am	6	HIS862	0.000	
47	  CA	98.982	3.387	122.055	C.3	6	HIS862	0.000	
48	   C	98.670	3.716	123.505	C.2	6	HIS862	0.000	
49	   O	99.559	3.691	124.365	O.2	6	HIS862	0.000	
50	  CB	99.515	1.958	121.886	C.3	6	HIS862	0.000	
51	  CG	98.520	0.927	122.325	C.2	6	HIS862	0.000	
52	 CD2	98.233	0.472	123.570	C.2	6	HIS862	0.000	
53	 ND1	97.655	0.325	121.420	N.pl3	6	HIS862	0.000	
54	 CE1	96.906	-0.502	122.134	C.2	6	HIS862	0.000	
55	 NE2	97.213	-0.444	123.435	N.pl3	6	HIS862	0.000	
56	   N	97.415	4.064	123.752	N.am	7	GLY863	0.000	
57	  CA	96.950	4.408	125.086	C.3	7	GLY863	0.000	
58	   C	96.118	3.314	125.705	C.2	7	GLY863	0.000	
59	   O	95.320	2.682	125.022	O.2	7	GLY863	0.000	
60	   N	96.328	3.069	126.987	N.am	8	SER864	0.000	
61	  CA	95.599	2.063	127.736	C.3	8	SER864	0.000	
62	   C	95.480	2.491	129.197	C.2	8	SER864	0.000	
63	   O	96.184	3.411	129.652	O.2	8	SER864	0.000	
64	  CB	96.265	0.684	127.617	C.3	8	SER864	0.000	
65	  OG	95.374	-0.375	127.279	O.3	8	SER864	0.000	
66	   N	82.495	-7.440	117.424	N.am	9	THR887	0.000	
67	  CA	81.789	-6.157	117.642	C.3	9	THR887	0.000	
68	   C	82.741	-5.086	118.167	C.2	9	THR887	0.000	
69	   O	83.575	-5.360	119.050	O.2	9	THR887	0.000	
70	  CB	80.640	-6.332	118.694	C.3	9	THR887	0.000	
71	 CG2	79.600	-5.208	118.668	C.3	9	THR887	0.000	
72	 OG1	80.021	-7.616	118.566	O.3	9	THR887	0.000	
73	   N	82.578	-3.880	117.637	N.am	10	GLY888	0.000	
74	  CA	83.350	-2.713	118.048	C.3	10	GLY888	0.000	
75	   C	84.709	-2.561	117.390	C.2	10	GLY888	0.000	
76	   O	85.139	-1.431	117.108	O.2	10	GLY888	0.000	
77	   N	85.418	-3.693	117.170	N.am	11	TYR889	0.000	
78	  CA	86.694	-3.666	116.472	C.3	11	TYR889	0.000	
79	   C	86.373	-3.188	115.066	C.2	11	TYR889	0.000	
80	   O	85.738	-3.918	114.289	O.2	11	TYR889	0.000	
81	  CB	87.395	-5.042	116.515	C.3	11	TYR889	0.000	
82	  CG	87.677	-5.541	117.918	C.2	11	TYR889	0.000	
83	 CD1	88.694	-4.982	118.689	C.2	11	TYR889	0.000	
84	 CD2	86.916	-6.557	118.482	C.2	11	TYR889	0.000	
85	 CE1	88.933	-5.413	119.996	C.2	11	TYR889	0.000	
86	 CE2	87.155	-7.009	119.781	C.2	11	TYR889	0.000	
87	  CZ	88.163	-6.434	120.539	C.2	11	TYR889	0.000	
88	  OH	88.349	-6.883	121.834	O.3	11	TYR889	0.000	
89	   N	86.663	-1.891	114.805	N.am	12	MET890	0.000	
90	  CA	86.347	-1.252	113.520	C.3	12	MET890	0.000	
91	   C	87.023	-1.985	112.346	C.2	12	MET890	0.000	
92	   O	86.428	-2.134	111.277	O.2	12	MET890	0.000	
93	  CB	86.751	0.226	113.540	C.3	12	MET890	0.000	
94	  CG	86.190	0.991	112.377	C.3	12	MET890	0.000	
95	  SD	86.415	2.782	112.415	S.3	12	MET890	0.000	
96	  CE	85.735	3.222	110.807	C.3	12	MET890	0.000	
97	   N	95.789	-1.780	117.674	N.am	13	TYR896	0.000	
98	  CA	95.433	-0.440	117.171	C.3	13	TYR896	0.000	
99	   C	96.389	0.648	117.690	C.2	13	TYR896	0.000	
100	   O	96.844	0.586	118.833	O.2	13	TYR896	0.000	
101	  CB	93.965	-0.093	117.530	C.3	13	TYR896	0.000	
102	  CG	92.894	-0.870	116.773	C.2	13	TYR896	0.000	
103	 CD1	92.724	-2.244	116.969	C.2	13	TYR896	0.000	
104	 CD2	91.977	-0.217	115.958	C.2	13	TYR896	0.000	
105	 CE1	91.725	-2.954	116.305	C.2	13	TYR896	0.000	
106	 CE2	90.992	-0.922	115.267	C.2	13	TYR896	0.000	
107	  CZ	90.875	-2.291	115.443	C.2	13	TYR896	0.000	
108	  OH	89.899	-2.982	114.783	O.3	13	TYR896	0.000	
109	   N	96.702	1.625	116.819	N.am	14	PHE897	0.000	
110	  CA	97.627	2.740	117.065	C.3	14	PHE897	0.000	
111	   C	97.167	4.062	116.467	C.2	14	PHE897	0.000	
112	   O	96.404	4.082	115.510	O.2	14	PHE897	0.000	
113	  CB	99.001	2.432	116.458	C.3	14	PHE897	0.000	
114	  CG	99.748	1.325	117.139	C.2	14	PHE897	0.000	
115	 CD1	100.507	1.577	118.268	C.2	14	PHE897	0.000	
116	 CD2	99.688	0.026	116.652	C.2	14	PHE897	0.000	
117	 CE1	101.200	0.553	118.900	C.2	14	PHE897	0.000	
118	 CE2	100.369	-1.001	117.283	C.2	14	PHE897	0.000	
119	  CZ	101.117	-0.736	118.414	C.2	14	PHE897	0.000	
120	   N	97.687	5.163	116.978	N.am	15	ALA898	0.000	
121	  CA	97.336	6.462	116.447	C.3	15	ALA898	0.000	
122	   C	98.579	7.313	116.207	C.2	15	ALA898	0.000	
123	   O	99.559	7.197	116.943	O.2	15	ALA898	0.000	
124	  CB	96.393	7.175	117.412	C.3	15	ALA898	0.000	
125	   N	94.108	11.025	120.598	N.am	16	LYS903	0.000	
126	  CA	93.368	9.807	120.268	C.3	16	LYS903	0.000	
127	   C	93.738	8.684	121.214	C.2	16	LYS903	0.000	
128	   O	92.846	8.073	121.792	O.2	16	LYS903	0.000	
129	  CB	93.625	9.397	118.804	C.3	16	LYS903	0.000	
130	  CG	92.667	8.341	118.267	C.3	16	LYS903	0.000	
131	  CD	92.735	8.266	116.743	C.3	16	LYS903	0.000	
132	  CE	91.782	7.249	116.154	C.3	16	LYS903	0.000	
133	  NZ	91.683	7.382	114.672	N.4	16	LYS903	0.000	
134	   N	95.037	8.438	121.394	N.am	17	SER904	0.000	
135	  CA	95.521	7.378	122.277	C.3	17	SER904	0.000	
136	   C	95.426	7.799	123.773	C.2	17	SER904	0.000	
137	   O	95.052	6.963	124.601	O.2	17	SER904	0.000	
138	  CB	96.946	6.970	121.899	C.3	17	SER904	0.000	
139	  OG	96.991	6.257	120.672	O.3	17	SER904	0.000	
140	   N	92.213	6.924	125.712	N.am	18	TYR907	0.000	
141	  CA	92.130	5.553	126.193	C.3	18	TYR907	0.000	
142	   C	92.812	5.306	127.543	C.2	18	TYR907	0.000	
143	   O	92.787	4.169	128.027	O.2	18	TYR907	0.000	
144	  CB	92.699	4.619	125.146	C.3	18	TYR907	0.000	
145	  CG	91.799	4.500	123.942	C.2	18	TYR907	0.000	
146	 CD1	90.721	3.628	123.940	C.2	18	TYR907	0.000	
147	 CD2	92.027	5.262	122.799	C.2	18	TYR907	0.000	
148	 CE1	89.880	3.525	122.835	C.2	18	TYR907	0.000	
149	 CE2	91.202	5.155	121.684	C.2	18	TYR907	0.000	
150	  CZ	90.127	4.285	121.707	C.2	18	TYR907	0.000	
151	  OH	89.319	4.147	120.607	O.3	18	TYR907	0.000	
152	   N	93.731	9.665	111.995	N.am	19	ASN987	0.000	
153	  CA	94.337	8.432	111.509	C.3	19	ASN987	0.000	
154	   C	94.523	7.417	112.630	C.2	19	ASN987	0.000	
155	   O	94.902	7.802	113.751	O.2	19	ASN987	0.000	
156	  CB	95.665	8.708	110.846	C.3	19	ASN987	0.000	
157	  CG	95.534	9.344	109.503	C.2	19	ASN987	0.000	
158	 ND2	95.547	10.666	109.481	N.pl3	19	ASN987	0.000	
159	 OD1	95.420	8.665	108.480	O.2	19	ASN987	0.000	
160	   N	94.239	6.124	112.311	N.am	20	GLU988	0.000	
161	  CA	94.462	4.953	113.168	C.3	20	GLU988	0.000	
162	   C	95.090	3.807	112.345	C.2	20	GLU988	0.000	
163	   O	94.772	3.636	111.171	O.2	20	GLU988	0.000	
164	  CB	93.214	4.494	113.952	C.3	20	GLU988	0.000	
165	  CG	92.012	4.008	113.159	C.3	20	GLU988	0.000	
166	  CD	90.839	3.603	114.037	C.2	20	GLU988	0.000	
167	 OE1	90.433	2.419	113.974	O.co2	20	GLU988	0.000	
168	 OE2	90.345	4.459	114.810	O.co2	20	GLU988	0.000	
169	   N	96.003	3.062	112.960	N.am	21	TYR989	0.000	
170	  CA	96.778	2.005	112.318	C.3	21	TYR989	0.000	
171	   C	96.583	0.656	113.023	C.2	21	TYR989	0.000	
172	   O	96.602	0.594	114.262	O.2	21	TYR989	0.000	
173	  CB	98.263	2.402	112.331	C.3	21	TYR989	0.000	
174	  CG	98.560	3.743	111.693	C.2	21	TYR989	0.000	
175	 CD1	98.399	4.930	112.404	C.2	21	TYR989	0.000	
176	 CD2	99.055	3.824	110.399	C.2	21	TYR989	0.000	
177	 CE1	98.676	6.167	111.820	C.2	21	TYR989	0.000	
178	 CE2	99.341	5.053	109.807	C.2	21	TYR989	0.000	
179	  CZ	99.147	6.222	110.519	C.2	21	TYR989	0.000	
180	  OH	99.448	7.428	109.934	O.3	21	TYR989	0.000	
@<TRIPOS>BOND
1 1 2 1
2 2 3 1
3 2 5 1
4 3 4 2
5 5 6 1
6 6 7 1
7 7 8 1
8 7 9 2
9 10 11 1
10 11 12 1
11 11 14 1
12 12 13 2
13 12 15 1
14 15 16 1
15 16 17 1
16 16 19 1
17 17 18 2
18 19 20 1
19 20 21 1
20 21 22 2
21 21 23 1
22 24 25 1
23 25 26 1
24 25 28 1
25 26 27 2
26 28 29 1
27 29 30 2
28 29 31 1
29 32 33 1
30 33 34 1
31 33 36 1
32 34 35 2
33 34 46 1
34 36 37 1
35 37 38 2
36 37 39 1
37 38 42 1
38 39 40 2
39 39 41 1
40 40 43 1
41 41 44 2
42 40 42 1
43 43 45 2
44 44 45 1
45 46 47 1
46 47 48 1
47 47 50 1
48 48 49 2
49 48 56 1
50 50 51 1
51 51 52 2
52 51 53 1
53 52 55 1
54 53 54 2
55 54 55 1
56 56 57 1
57 57 58 1
58 58 59 2
59 58 60 1
60 60 61 1
61 61 62 1
62 61 64 1
63 62 63 2
64 64 65 1
65 66 67 1
66 67 68 1
67 67 70 1
68 68 69 2
69 68 73 1
70 70 71 1
71 70 72 1
72 73 74 1
73 74 75 1
74 75 76 2
75 75 77 1
76 77 78 1
77 78 79 1
78 78 81 1
79 79 80 2
80 79 89 1
81 81 82 1
82 82 83 2
83 82 84 1
84 83 85 1
85 84 86 2
86 85 87 2
87 86 87 1
88 87 88 1
89 89 90 1
90 90 91 1
91 90 93 1
92 91 92 2
93 93 94 1
94 94 95 1
95 95 96 1
96 97 98 1
97 98 99 1
98 98 101 1
99 99 100 2
100 99 109 1
101 101 102 1
102 102 103 2
103 102 104 1
104 103 105 1
105 104 106 2
106 105 107 2
107 106 107 1
108 107 108 1
109 109 110 1
110 110 111 1
111 110 113 1
112 111 112 2
113 111 120 1
114 113 114 1
115 114 115 2
116 114 116 1
117 115 117 1
118 116 118 2
119 117 119 2
120 118 119 1
121 120 121 1
122 121 122 1
123 121 124 1
124 122 123 2
125 125 126 1
126 126 127 1
127 126 129 1
128 127 128 2
129 127 134 1
130 129 130 1
131 130 131 1
132 131 132 1
133 132 133 1
134 134 135 1
135 135 136 1
136 135 138 1
137 136 137 2
138 138 139 1
139 140 141 1
140 141 142 1
141 141 144 1
142 142 143 2
143 144 145 1
144 145 146 2
145 145 147 1
146 146 148 1
147 147 149 2
148 148 150 2
149 149 150 1
150 150 151 1
151 152 153 1
152 153 154 1
153 153 156 1
154 154 155 2
155 154 160 1
156 156 157 1
157 157 158 1
158 157 159 2
159 160 161 1
160 161 162 1
161 161 164 1
162 162 163 2
163 162 169 1
164 164 165 1
165 165 166 1
166 166 167 2
167 166 168 1
168 169 170 1
169 170 171 1
170 170 173 1
171 171 172 2
172 173 174 1
173 174 175 2
174 174 176 1
175 175 177 1
176 176 178 2
177 177 179 2
178 178 179 1
179 179 180 1
@<TRIPOS>SUBSTRUCTURE
1	GLN759	1	RESIDUE	1 B	GLN
2	ALA762	10	RESIDUE	1 B	ALA
3	GLU763	15	RESIDUE	1 B	GLU
4	ASP766	24	RESIDUE	1 B	ASP
5	TRP861	32	RESIDUE	1 B	TRP
6	HIS862	46	RESIDUE	1 B	HIS
7	GLY863	56	RESIDUE	1 B	GLY
8	SER864	60	RESIDUE	1 B	SER
9	THR887	66	RESIDUE	1 B	THR
10	GLY888	73	RESIDUE	1 B	GLY
11	TYR889	77	RESIDUE	1 B	TYR
12	MET890	89	RESIDUE	1 B	MET
13	TYR896	97	RESIDUE	1 B	TYR
14	PHE897	109	RESIDUE	1 B	PHE
15	ALA898	120	RESIDUE	1 B	ALA
16	LYS903	125	RESIDUE	1 B	LYS
17	SER904	134	RESIDUE	1 B	SER
18	TYR907	140	RESIDUE	1 B	TYR
19	ASN987	152	RESIDUE	1 B	ASN
20	GLU988	160	RESIDUE	1 B	GLU
21	TYR989	169	RESIDUE	1 B	TYR
