# created with PyMOL 2.5.2
@<TRIPOS>MOLECULE
KRAS_5V9O_TargetProtein
215 208 27              
SMALL
USER_CHARGES
@<TRIPOS>ATOM
1	   N	-0.997	-17.803	64.348	N.am	1	VAL9	0.000	
2	  CA	-0.512	-17.795	65.725	C.3	1	VAL9	0.000	
3	   C	1.008	-17.701	65.719	C.2	1	VAL9	0.000	
4	   O	1.666	-17.926	64.702	O.2	1	VAL9	0.000	
5	  CB	-0.960	-19.038	66.527	C.3	1	VAL9	0.000	
6	 CG1	-2.479	-19.126	66.544	C.3	1	VAL9	0.000	
7	 CG2	-0.370	-20.306	65.940	C.3	1	VAL9	0.000	
8	   N	1.553	-17.423	66.898	N.am	2	GLY10	0.000	
9	  CA	2.979	-17.228	67.071	C.3	2	GLY10	0.000	
10	   C	3.288	-16.063	67.991	C.2	2	GLY10	0.000	
11	   O	2.421	-15.223	68.283	O.2	2	GLY10	0.000	
12	   N	4.541	-15.999	68.441	N.am	3	ALA11	0.000	
13	  CA	4.965	-15.018	69.426	C.3	3	ALA11	0.000	
14	   C	4.804	-13.579	68.941	C.2	3	ALA11	0.000	
15	   O	4.678	-13.276	67.747	O.2	3	ALA11	0.000	
16	  CB	6.426	-15.262	69.814	C.3	3	ALA11	0.000	
17	   N	4.828	-12.671	69.910	N.am	4	CYS12	0.000	
18	  CA	4.751	-11.252	69.609	C.3	4	CYS12	0.000	
19	   C	5.894	-10.836	68.693	C.2	4	CYS12	0.000	
20	   O	7.056	-11.181	68.933	O.2	4	CYS12	0.000	
21	  CB	4.803	-10.452	70.905	C.3	4	CYS12	0.000	
22	  SG	4.134	-8.802	70.759	S.3	4	CYS12	0.000	
23	   N	5.558	-10.118	67.624	N.am	5	GLY13	0.000	
24	  CA	6.546	-9.521	66.753	C.3	5	GLY13	0.000	
25	   C	7.102	-10.409	65.657	C.2	5	GLY13	0.000	
26	   O	8.009	-9.971	64.935	O.2	5	GLY13	0.000	
27	   N	2.894	-11.873	62.335	N.am	6	LYS16	0.000	
28	  CA	1.534	-12.349	62.071	C.3	6	LYS16	0.000	
29	   C	0.722	-11.300	61.330	C.2	6	LYS16	0.000	
30	   O	0.085	-11.596	60.308	O.2	6	LYS16	0.000	
31	  CB	0.832	-12.721	63.377	C.3	6	LYS16	0.000	
32	  CG	1.546	-13.815	64.154	C.3	6	LYS16	0.000	
33	  CD	0.801	-14.190	65.427	C.3	6	LYS16	0.000	
34	  CE	0.704	-13.034	66.431	C.3	6	LYS16	0.000	
35	  NZ	2.017	-12.547	66.963	N.4	6	LYS16	0.000	
36	   N	0.384	-3.858	68.005	N.am	7	PRO34	0.000	
37	  CA	0.610	-5.252	68.431	C.3	7	PRO34	0.000	
38	   C	-0.544	-5.881	69.188	C.2	7	PRO34	0.000	
39	   O	-0.563	-7.115	69.311	O.2	7	PRO34	0.000	
40	  CB	1.858	-5.146	69.320	C.3	7	PRO34	0.000	
41	  CG	2.553	-3.901	68.862	C.3	7	PRO34	0.000	
42	  CD	1.461	-2.955	68.453	C.3	7	PRO34	0.000	
43	   N	-4.118	-13.348	65.325	N.am	8	THR58	0.000	
44	  CA	-4.178	-13.313	66.790	C.3	8	THR58	0.000	
45	   C	-3.228	-12.281	67.383	C.2	8	THR58	0.000	
46	   O	-2.194	-11.941	66.800	O.2	8	THR58	0.000	
47	  CB	-3.842	-14.679	67.412	C.3	8	THR58	0.000	
48	 CG2	-4.821	-15.742	66.945	C.3	8	THR58	0.000	
49	 OG1	-2.487	-15.075	67.098	O.3	8	THR58	0.000	
50	   N	-3.572	-11.817	68.588	N.am	9	ALA59	0.000	
51	  CA	-2.729	-10.857	69.293	C.3	9	ALA59	0.000	
52	   C	-2.832	-10.974	70.810	C.2	9	ALA59	0.000	
53	   O	-1.916	-10.556	71.523	O.2	9	ALA59	0.000	
54	  CB	-3.079	-9.427	68.867	C.3	9	ALA59	0.000	
55	   N	-3.947	-11.495	71.320	N.am	10	GLY60	0.000	
56	  CA	-4.108	-11.597	72.763	C.3	10	GLY60	0.000	
57	   C	-3.205	-12.663	73.357	C.2	10	GLY60	0.000	
58	   O	-2.849	-13.640	72.703	O.2	10	GLY60	0.000	
59	   N	-2.840	-12.484	74.630	N.am	11	GLN61	0.000	
60	  CA	-1.909	-13.397	75.288	C.3	11	GLN61	0.000	
61	   C	-2.588	-14.437	76.168	C.2	11	GLN61	0.000	
62	   O	-1.916	-15.369	76.629	O.2	11	GLN61	0.000	
63	  CB	-0.908	-12.613	76.147	C.3	11	GLN61	0.000	
64	  CG	-1.543	-11.981	77.365	C.3	11	GLN61	0.000	
65	  CD	-0.545	-11.259	78.251	C.2	11	GLN61	0.000	
66	 NE2	-1.056	-10.494	79.208	N.pl3	11	GLN61	0.000	
67	 OE1	0.667	-11.384	78.077	O.2	11	GLN61	0.000	
68	   N	-3.881	-14.298	76.435	N.am	12	GLU62	0.000	
69	  CA	-4.531	-15.168	77.404	C.3	12	GLU62	0.000	
70	   C	-4.602	-16.609	76.905	C.2	12	GLU62	0.000	
71	   O	-4.776	-16.873	75.716	O.2	12	GLU62	0.000	
72	  CB	-5.933	-14.652	77.718	C.3	12	GLU62	0.000	
73	  CG	-6.735	-15.564	78.626	C.3	12	GLU62	0.000	
74	  CD	-8.001	-14.914	79.129	C.2	12	GLU62	0.000	
75	 OE1	-8.323	-15.095	80.322	O.co2	12	GLU62	0.000	
76	 OE2	-8.667	-14.220	78.331	O.co2	12	GLU62	0.000	
77	   N	-4.474	-17.551	77.839	N.am	13	GLU63	0.000	
78	  CA	-4.622	-18.960	77.510	C.3	13	GLU63	0.000	
79	   C	-5.254	-19.669	78.697	C.2	13	GLU63	0.000	
80	   O	-5.419	-19.091	79.775	O.2	13	GLU63	0.000	
81	  CB	-3.279	-19.594	77.125	C.3	13	GLU63	0.000	
82	  CG	-2.133	-19.286	78.069	C.3	13	GLU63	0.000	
83	  CD	-0.854	-19.992	77.654	C.2	13	GLU63	0.000	
84	 OE1	-0.229	-20.657	78.511	O.co2	13	GLU63	0.000	
85	 OE2	-0.491	-19.899	76.463	O.co2	13	GLU63	0.000	
86	   N	-5.599	-20.937	78.487	N.am	14	TYR64	0.000	
87	  CA	-6.277	-21.758	79.493	C.3	14	TYR64	0.000	
88	   C	-7.481	-21.009	80.061	C.2	14	TYR64	0.000	
89	   O	-7.617	-20.780	81.266	O.2	14	TYR64	0.000	
90	  CB	-5.312	-22.205	80.601	C.3	14	TYR64	0.000	
91	  CG	-4.256	-23.165	80.095	C.2	14	TYR64	0.000	
92	 CD1	-3.071	-22.692	79.550	C.2	14	TYR64	0.000	
93	 CD2	-4.456	-24.539	80.136	C.2	14	TYR64	0.000	
94	 CE1	-2.111	-23.552	79.064	C.2	14	TYR64	0.000	
95	 CE2	-3.490	-25.414	79.654	C.2	14	TYR64	0.000	
96	  CZ	-2.320	-24.911	79.120	C.2	14	TYR64	0.000	
97	  OH	-1.346	-25.762	78.634	O.3	14	TYR64	0.000	
98	   N	-8.356	-20.620	79.139	N.am	15	SER65	0.000	
99	  CA	-9.590	-19.907	79.439	C.3	15	SER65	0.000	
100	   C	-10.660	-20.448	78.505	C.2	15	SER65	0.000	
101	   O	-10.408	-20.581	77.304	O.2	15	SER65	0.000	
102	  CB	-9.415	-18.396	79.248	C.3	15	SER65	0.000	
103	  OG	-10.608	-17.703	79.564	O.3	15	SER65	0.000	
104	   N	-11.682	-18.460	75.044	N.am	16	ARG68	0.000	
105	  CA	-10.693	-18.478	73.973	C.3	16	ARG68	0.000	
106	   C	-10.484	-19.887	73.438	C.2	16	ARG68	0.000	
107	   O	-10.354	-20.085	72.224	O.2	16	ARG68	0.000	
108	  CB	-9.368	-17.889	74.440	C.3	16	ARG68	0.000	
109	  CG	-8.458	-17.598	73.252	C.3	16	ARG68	0.000	
110	  CD	-7.281	-16.732	73.619	C.3	16	ARG68	0.000	
111	  NE	-6.833	-15.948	72.472	N.pl3	16	ARG68	0.000	
112	  CZ	-5.640	-15.371	72.382	C.cat	16	ARG68	0.000	
113	 NH1	-5.331	-14.669	71.297	N.pl3	16	ARG68	0.000	
114	 NH2	-4.751	-15.514	73.365	N.pl3	16	ARG68	0.000	
115	   N	-10.450	-20.880	74.326	N.am	17	ASP69	0.000	
116	  CA	-10.257	-22.253	73.877	C.3	17	ASP69	0.000	
117	   C	-11.415	-22.715	72.998	C.2	17	ASP69	0.000	
118	   O	-11.201	-23.376	71.976	O.2	17	ASP69	0.000	
119	  CB	-10.069	-23.171	75.087	C.3	17	ASP69	0.000	
120	  CG	-8.779	-22.871	75.837	C.2	17	ASP69	0.000	
121	 OD1	-7.842	-22.347	75.193	O.co2	17	ASP69	0.000	
122	 OD2	-8.697	-23.157	77.051	O.co2	17	ASP69	0.000	
123	   N	-10.902	-21.120	69.557	N.am	18	MET72	0.000	
124	  CA	-9.800	-21.660	68.768	C.3	18	MET72	0.000	
125	   C	-10.123	-23.040	68.215	C.2	18	MET72	0.000	
126	   O	-9.590	-23.426	67.165	O.2	18	MET72	0.000	
127	  CB	-8.529	-21.702	69.612	C.3	18	MET72	0.000	
128	  CG	-7.987	-20.328	69.935	C.3	18	MET72	0.000	
129	  SD	-7.603	-19.420	68.435	S.3	18	MET72	0.000	
130	  CE	-6.920	-17.948	69.133	C.3	18	MET72	0.000	
131	   N	-4.077	-23.885	61.197	N.am	19	PHE78	0.000	
132	  CA	-3.271	-22.938	61.952	C.3	19	PHE78	0.000	
133	   C	-1.962	-22.642	61.240	C.2	19	PHE78	0.000	
134	   O	-1.220	-23.560	60.875	O.2	19	PHE78	0.000	
135	  CB	-3.010	-23.481	63.360	C.3	19	PHE78	0.000	
136	  CG	-4.248	-23.554	64.195	C.2	19	PHE78	0.000	
137	 CD1	-5.103	-24.635	64.090	C.2	19	PHE78	0.000	
138	 CD2	-4.585	-22.514	65.041	C.2	19	PHE78	0.000	
139	 CE1	-6.275	-24.691	64.838	C.2	19	PHE78	0.000	
140	 CE2	-5.746	-22.559	65.792	C.2	19	PHE78	0.000	
141	  CZ	-6.591	-23.649	65.697	C.2	19	PHE78	0.000	
142	   N	13.662	-17.591	70.623	N.am	20	LYS88	0.000	
143	  CA	12.544	-17.821	71.529	C.3	20	LYS88	0.000	
144	   C	11.249	-18.082	70.764	C.2	20	LYS88	0.000	
145	   O	10.472	-18.974	71.135	O.2	20	LYS88	0.000	
146	  CB	12.381	-16.642	72.479	C.3	20	LYS88	0.000	
147	  CG	11.239	-16.821	73.451	C.3	20	LYS88	0.000	
148	  CD	11.173	-15.695	74.471	C.3	20	LYS88	0.000	
149	  CE	10.152	-16.011	75.559	C.3	20	LYS88	0.000	
150	  NZ	8.835	-16.428	74.989	N.4	20	LYS88	0.000	
151	   N	8.896	-21.308	71.056	N.am	21	ASP92	0.000	
152	  CA	7.486	-21.170	71.397	C.3	21	ASP92	0.000	
153	   C	6.579	-21.993	70.490	C.2	21	ASP92	0.000	
154	   O	5.425	-22.225	70.857	O.2	21	ASP92	0.000	
155	  CB	7.044	-19.701	71.322	C.3	21	ASP92	0.000	
156	  CG	7.590	-18.846	72.464	C.2	21	ASP92	0.000	
157	 OD1	8.119	-19.390	73.456	O.co2	21	ASP92	0.000	
158	 OD2	7.473	-17.603	72.360	O.co2	21	ASP92	0.000	
159	   N	4.860	-24.704	72.227	N.am	22	HIE95	0.000	
160	  CA	3.733	-24.277	73.048	C.3	22	HIE95	0.000	
161	   C	2.478	-24.072	72.208	C.2	22	HIE95	0.000	
162	   O	1.385	-24.512	72.589	O.2	22	HIE95	0.000	
163	  CB	4.110	-22.993	73.775	C.3	22	HIE95	0.000	
164	  CG	3.059	-22.488	74.708	C.2	22	HIE95	0.000	
165	 CD2	2.109	-21.538	74.551	C.2	22	HIE95	0.000	
166	 ND1	2.931	-22.950	76.000	N.2	22	HIE95	0.000	
167	 CE1	1.930	-22.323	76.590	C.2	22	HIE95	0.000	
168	 NE2	1.420	-21.456	75.736	N.pl3	22	HIE95	0.000	
169	   N	2.617	-23.404	71.059	N.am	23	TYR96	0.000	
170	  CA	1.467	-23.190	70.182	C.3	23	TYR96	0.000	
171	   C	0.930	-24.509	69.649	C.2	23	TYR96	0.000	
172	   O	-0.283	-24.721	69.625	O.2	23	TYR96	0.000	
173	  CB	1.838	-22.226	69.044	C.3	23	TYR96	0.000	
174	  CG	1.994	-20.836	69.601	C.2	23	TYR96	0.000	
175	 CD1	0.882	-20.143	70.059	C.2	23	TYR96	0.000	
176	 CD2	3.243	-20.239	69.725	C.2	23	TYR96	0.000	
177	 CE1	1.002	-18.888	70.610	C.2	23	TYR96	0.000	
178	 CE2	3.373	-18.979	70.282	C.2	23	TYR96	0.000	
179	  CZ	2.243	-18.315	70.726	C.2	23	TYR96	0.000	
180	  OH	2.332	-17.063	71.293	O.3	23	TYR96	0.000	
181	   N	-1.032	-26.012	72.339	N.am	24	GLN99	0.000	
182	  CA	-2.331	-25.381	72.564	C.3	24	GLN99	0.000	
183	   C	-3.336	-25.823	71.506	C.2	24	GLN99	0.000	
184	   O	-4.503	-26.087	71.821	O.2	24	GLN99	0.000	
185	  CB	-2.210	-23.850	72.580	C.3	24	GLN99	0.000	
186	  CG	-1.305	-23.289	73.666	C.3	24	GLN99	0.000	
187	  CD	-1.573	-23.894	75.030	C.2	24	GLN99	0.000	
188	 NE2	-0.534	-24.444	75.657	N.pl3	24	GLN99	0.000	
189	 OE1	-2.700	-23.876	75.513	O.2	24	GLN99	0.000	
190	   N	-2.892	-25.935	70.252	N.am	25	ILE100	0.000	
191	  CA	-3.764	-26.439	69.194	C.3	25	ILE100	0.000	
192	   C	-4.228	-27.846	69.525	C.2	25	ILE100	0.000	
193	   O	-5.418	-28.170	69.430	O.2	25	ILE100	0.000	
194	  CB	-3.038	-26.395	67.839	C.3	25	ILE100	0.000	
195	 CG1	-2.768	-24.945	67.437	C.3	25	ILE100	0.000	
196	 CG2	-3.864	-27.109	66.777	C.3	25	ILE100	0.000	
197	 CD1	-1.695	-24.793	66.355	C.3	25	ILE100	0.000	
198	   N	-4.355	-29.167	72.454	N.am	26	ARG102	0.000	
199	  CA	-5.164	-29.156	73.667	C.3	26	ARG102	0.000	
200	   C	-6.613	-28.796	73.368	C.2	26	ARG102	0.000	
201	   O	-7.534	-29.423	73.906	O.2	26	ARG102	0.000	
202	  CB	-4.578	-28.181	74.690	C.3	26	ARG102	0.000	
203	  CG	-5.429	-28.046	75.943	C.3	26	ARG102	0.000	
204	  CD	-4.756	-27.170	76.996	C.3	26	ARG102	0.000	
205	  NE	-4.655	-25.788	76.539	N.pl3	26	ARG102	0.000	
206	  CZ	-5.647	-24.908	76.630	C.cat	26	ARG102	0.000	
207	 NH1	-6.808	-25.266	77.176	N.pl3	26	ARG102	0.000	
208	 NH2	-5.482	-23.668	76.180	N.pl3	26	ARG102	0.000	
209	   N	-6.839	-27.792	72.520	N.am	27	VAL103	0.000	
210	  CA	-8.205	-27.318	72.322	C.3	27	VAL103	0.000	
211	   C	-8.938	-28.123	71.250	C.2	27	VAL103	0.000	
212	   O	-10.160	-28.276	71.329	O.2	27	VAL103	0.000	
213	  CB	-8.248	-25.809	72.004	C.3	27	VAL103	0.000	
214	 CG1	-7.540	-25.011	73.097	C.3	27	VAL103	0.000	
215	 CG2	-7.679	-25.500	70.629	C.3	27	VAL103	0.000	
@<TRIPOS>BOND
1 1 2 1
2 2 3 1
3 2 5 1
4 3 4 2
5 3 8 1
6 5 6 1
7 5 7 1
8 8 9 1
9 9 10 1
10 10 11 2
11 10 12 1
12 12 13 1
13 13 14 1
14 13 16 1
15 14 15 2
16 14 17 1
17 17 18 1
18 18 19 1
19 18 21 1
20 19 20 2
21 19 23 1
22 21 22 1
23 23 24 1
24 24 25 1
25 25 26 2
26 27 28 1
27 28 29 1
28 28 31 1
29 29 30 2
30 31 32 1
31 32 33 1
32 33 34 1
33 34 35 1
34 36 37 1
35 36 42 1
36 37 38 1
37 37 40 1
38 38 39 2
39 40 41 1
40 41 42 1
41 43 44 1
42 44 45 1
43 44 47 1
44 45 46 2
45 45 50 1
46 47 48 1
47 47 49 1
48 50 51 1
49 51 52 1
50 51 54 1
51 52 53 2
52 52 55 1
53 55 56 1
54 56 57 1
55 57 58 2
56 57 59 1
57 59 60 1
58 60 61 1
59 60 63 1
60 61 62 2
61 61 68 1
62 63 64 1
63 64 65 1
64 65 66 1
65 65 67 2
66 68 69 1
67 69 70 1
68 69 72 1
69 70 71 2
70 70 77 1
71 72 73 1
72 73 74 1
73 74 75 2
74 74 76 1
75 77 78 1
76 78 79 1
77 78 81 1
78 79 80 2
79 79 86 1
80 81 82 1
81 82 83 1
82 83 84 2
83 83 85 1
84 86 87 1
85 87 88 1
86 87 90 1
87 88 89 2
88 88 98 1
89 90 91 1
90 91 92 2
91 91 93 1
92 92 94 1
93 93 95 2
94 94 96 2
95 95 96 1
96 96 97 1
97 98 99 1
98 99 100 1
99 99 102 1
100 100 101 2
101 102 103 1
102 104 105 1
103 105 106 1
104 105 108 1
105 106 107 2
106 106 115 1
107 108 109 1
108 109 110 1
109 110 111 1
110 111 112 1
111 112 113 2
112 112 114 1
113 115 116 1
114 116 117 1
115 116 119 1
116 117 118 2
117 119 120 1
118 120 121 2
119 120 122 1
120 123 124 1
121 124 125 1
122 124 127 1
123 125 126 2
124 127 128 1
125 128 129 1
126 129 130 1
127 131 132 1
128 132 133 1
129 132 135 1
130 133 134 2
131 135 136 1
132 136 137 2
133 136 138 1
134 137 139 1
135 138 140 2
136 139 141 2
137 140 141 1
138 142 143 1
139 143 144 1
140 143 146 1
141 144 145 2
142 146 147 1
143 147 148 1
144 148 149 1
145 149 150 1
146 151 152 1
147 152 153 1
148 152 155 1
149 153 154 2
150 155 156 1
151 156 157 2
152 156 158 1
153 159 160 1
154 160 161 1
155 160 163 1
156 161 162 2
157 161 169 1
158 163 164 1
159 164 165 2
160 164 166 1
161 165 168 1
162 166 167 2
163 167 168 1
164 169 170 1
165 170 171 1
166 170 173 1
167 171 172 2
168 173 174 1
169 174 175 2
170 174 176 1
171 175 177 1
172 176 178 2
173 177 179 2
174 178 179 1
175 179 180 1
176 181 182 1
177 182 183 1
178 182 185 1
179 183 184 2
180 183 190 1
181 185 186 1
182 186 187 1
183 187 188 1
184 187 189 2
185 190 191 1
186 191 192 1
187 191 194 1
188 192 193 2
189 194 195 1
190 194 196 1
191 195 197 1
192 198 199 1
193 199 200 1
194 199 202 1
195 200 201 2
196 200 209 1
197 202 203 1
198 203 204 1
199 204 205 1
200 205 206 1
201 206 207 2
202 206 208 1
203 209 210 1
204 210 211 1
205 210 213 1
206 211 212 2
207 213 214 1
208 213 215 1
@<TRIPOS>SUBSTRUCTURE
1	VAL9	1	RESIDUE	1 B	VAL
2	GLY10	8	RESIDUE	1 B	GLY
3	ALA11	12	RESIDUE	1 B	ALA
4	CYS12	17	RESIDUE	1 B	CYS
5	GLY13	23	RESIDUE	1 B	GLY
6	LYS16	27	RESIDUE	1 B	LYS
7	PRO34	36	RESIDUE	1 B	PRO
8	THR58	43	RESIDUE	1 B	THR
9	ALA59	50	RESIDUE	1 B	ALA
10	GLY60	55	RESIDUE	1 B	GLY
11	GLN61	59	RESIDUE	1 B	GLN
12	GLU62	68	RESIDUE	1 B	GLU
13	GLU63	77	RESIDUE	1 B	GLU
14	TYR64	86	RESIDUE	1 B	TYR
15	SER65	98	RESIDUE	1 B	SER
16	ARG68	104	RESIDUE	1 B	ARG
17	ASP69	115	RESIDUE	1 B	ASP
18	MET72	123	RESIDUE	1 B	MET
19	PHE78	131	RESIDUE	1 B	PHE
20	LYS88	142	RESIDUE	1 B	LYS
21	ASP92	151	RESIDUE	1 B	ASP
22	HIE95	159	RESIDUE	1 B	HIE
23	TYR96	169	RESIDUE	1 B	TYR
24	GLN99	181	RESIDUE	1 B	GLN
25	ILE100	190	RESIDUE	1 B	ILE
26	ARG102	198	RESIDUE	1 B	ARG
27	VAL103	209	RESIDUE	1 B	VAL
