# created with PyMOL 2.5.2
@<TRIPOS>MOLECULE
BRD2_4A9H_TargetProtein
126 123 14              
SMALL
USER_CHARGES
@<TRIPOS>ATOM
1	   N	12.483	14.549	-4.787	N.am	1	TRP97	0.000	
2	  CA	11.756	13.921	-5.901	C.3	1	TRP97	0.000	
3	   C	12.533	12.827	-6.610	C.2	1	TRP97	0.000	
4	   O	11.945	11.851	-7.020	O.2	1	TRP97	0.000	
5	  CB	11.137	14.957	-6.873	C.3	1	TRP97	0.000	
6	  CG	12.164	15.789	-7.559	C.2	1	TRP97	0.000	
7	 CD1	12.681	17.021	-7.152	C.2	1	TRP97	0.000	
8	 CD2	12.880	15.452	-8.792	C.2	1	TRP97	0.000	
9	 CE2	13.813	16.539	-9.034	C.2	1	TRP97	0.000	
10	 CE3	12.839	14.389	-9.677	C.2	1	TRP97	0.000	
11	 NE1	13.650	17.440	-8.031	N.pl3	1	TRP97	0.000	
12	 CZ2	14.653	16.547	-10.128	C.2	1	TRP97	0.000	
13	 CZ3	13.691	14.401	-10.770	C.2	1	TRP97	0.000	
14	 CH2	14.578	15.455	-10.991	C.2	1	TRP97	0.000	
15	   N	13.870	12.963	-6.767	N.am	2	PRO98	0.000	
16	  CA	14.574	11.872	-7.451	C.3	2	PRO98	0.000	
17	   C	14.615	10.574	-6.646	C.2	2	PRO98	0.000	
18	   O	14.992	9.543	-7.195	O.2	2	PRO98	0.000	
19	  CB	16.007	12.413	-7.590	C.3	2	PRO98	0.000	
20	  CG	15.853	13.907	-7.523	C.3	2	PRO98	0.000	
21	  CD	14.789	14.075	-6.475	C.3	2	PRO98	0.000	
22	   N	14.272	10.662	-5.354	N.am	3	PHE99	0.000	
23	  CA	14.410	9.587	-4.405	C.3	3	PHE99	0.000	
24	   C	13.076	8.957	-4.042	C.2	3	PHE99	0.000	
25	   O	13.050	7.947	-3.357	O.2	3	PHE99	0.000	
26	  CB	15.085	10.095	-3.126	C.3	3	PHE99	0.000	
27	  CG	16.457	10.641	-3.346	C.2	3	PHE99	0.000	
28	 CD1	17.550	9.793	-3.398	C.2	3	PHE99	0.000	
29	 CD2	16.662	12.016	-3.518	C.2	3	PHE99	0.000	
30	 CE1	18.816	10.306	-3.612	C.2	3	PHE99	0.000	
31	 CE2	17.930	12.521	-3.729	C.2	3	PHE99	0.000	
32	  CZ	19.007	11.667	-3.773	C.2	3	PHE99	0.000	
33	   N	10.997	7.234	-5.754	N.am	4	GLN101	0.000	
34	  CA	10.706	5.993	-6.462	C.3	4	GLN101	0.000	
35	   C	12.054	5.437	-6.928	C.2	4	GLN101	0.000	
36	   O	13.017	6.187	-7.014	O.2	4	GLN101	0.000	
37	  CB	9.756	6.267	-7.653	C.3	4	GLN101	0.000	
38	  CG	10.324	7.172	-8.746	C.3	4	GLN101	0.000	
39	  CD	10.516	8.633	-8.293	C.2	4	GLN101	0.000	
40	 NE2	11.754	9.125	-8.401	N.pl3	4	GLN101	0.000	
41	 OE1	9.556	9.308	-7.858	O.2	4	GLN101	0.000	
42	   N	15.355	4.270	-8.867	N.am	5	VAL103	0.000	
43	  CA	16.070	4.726	-10.043	C.3	5	VAL103	0.000	
44	   C	15.584	3.918	-11.271	C.2	5	VAL103	0.000	
45	   O	15.646	2.682	-11.293	O.2	5	VAL103	0.000	
46	  CB	17.592	4.512	-9.900	C.3	5	VAL103	0.000	
47	 CG1	18.269	4.794	-11.217	C.3	5	VAL103	0.000	
48	 CG2	18.170	5.372	-8.765	C.3	5	VAL103	0.000	
49	   N	16.463	6.956	-17.470	N.am	6	LEU108	0.000	
50	  CA	17.601	7.867	-17.289	C.3	6	LEU108	0.000	
51	   C	18.736	7.605	-18.262	C.2	6	LEU108	0.000	
52	   O	19.679	8.400	-18.352	O.2	6	LEU108	0.000	
53	  CB	18.095	7.843	-15.842	C.3	6	LEU108	0.000	
54	  CG	17.080	8.380	-14.806	C.3	6	LEU108	0.000	
55	 CD1	17.464	7.970	-13.395	C.3	6	LEU108	0.000	
56	 CD2	16.952	9.897	-14.887	C.3	6	LEU108	0.000	
57	   N	20.828	4.878	-18.237	N.am	7	LEU110	0.000	
58	  CA	21.941	4.493	-17.375	C.3	7	LEU110	0.000	
59	   C	22.108	2.965	-17.358	C.2	7	LEU110	0.000	
60	   O	21.746	2.307	-16.384	O.2	7	LEU110	0.000	
61	  CB	21.699	5.043	-15.971	C.3	7	LEU110	0.000	
62	  CG	21.574	6.574	-15.850	C.3	7	LEU110	0.000	
63	 CD1	21.194	6.964	-14.428	C.3	7	LEU110	0.000	
64	 CD2	22.850	7.286	-16.276	C.3	7	LEU110	0.000	
65	   N	23.786	1.220	-14.342	N.am	8	TYR113	0.000	
66	  CA	23.329	1.493	-12.958	C.3	8	TYR113	0.000	
67	   C	23.257	0.203	-12.131	C.2	8	TYR113	0.000	
68	   O	23.782	0.127	-11.019	O.2	8	TYR113	0.000	
69	  CB	21.985	2.235	-12.897	C.3	8	TYR113	0.000	
70	  CG	21.619	2.609	-11.468	C.2	8	TYR113	0.000	
71	 CD1	22.157	3.750	-10.869	C.2	8	TYR113	0.000	
72	 CD2	20.781	1.807	-10.701	C.2	8	TYR113	0.000	
73	 CE1	21.862	4.092	-9.554	C.2	8	TYR113	0.000	
74	 CE2	20.476	2.143	-9.382	C.2	8	TYR113	0.000	
75	  CZ	21.022	3.301	-8.816	C.2	8	TYR113	0.000	
76	  OH	20.762	3.650	-7.504	O.3	8	TYR113	0.000	
77	   N	23.615	6.447	-4.020	N.am	9	CYS152	0.000	
78	  CA	23.701	7.701	-4.752	C.3	9	CYS152	0.000	
79	   C	25.130	8.201	-4.828	C.2	9	CYS152	0.000	
80	   O	25.631	8.532	-5.915	O.2	9	CYS152	0.000	
81	  CB	22.778	8.736	-4.111	C.3	9	CYS152	0.000	
82	  SG	22.665	10.294	-5.023	S.3	9	CYS152	0.000	
83	   N	27.407	5.712	-7.120	N.am	10	TYR155	0.000	
84	  CA	27.161	5.653	-8.547	C.3	10	TYR155	0.000	
85	   C	27.471	6.951	-9.281	C.2	10	TYR155	0.000	
86	   O	28.110	6.952	-10.332	O.2	10	TYR155	0.000	
87	  CB	25.700	5.243	-8.836	C.3	10	TYR155	0.000	
88	  CG	25.463	5.272	-10.317	C.2	10	TYR155	0.000	
89	 CD1	26.022	4.294	-11.145	C.2	10	TYR155	0.000	
90	 CD2	24.802	6.330	-10.911	C.2	10	TYR155	0.000	
91	 CE1	25.857	4.332	-12.511	C.2	10	TYR155	0.000	
92	 CE2	24.651	6.387	-12.285	C.2	10	TYR155	0.000	
93	  CZ	25.187	5.393	-13.079	C.2	10	TYR155	0.000	
94	  OH	25.033	5.451	-14.443	O.3	10	TYR155	0.000	
95	   N	27.029	8.063	-8.730	N.am	11	ASN156	0.000	
96	  CA	27.079	9.344	-9.452	C.3	11	ASN156	0.000	
97	   C	28.437	10.012	-9.363	C.2	11	ASN156	0.000	
98	   O	29.229	9.659	-8.505	O.2	11	ASN156	0.000	
99	  CB	26.008	10.249	-8.902	C.3	11	ASN156	0.000	
100	  CG	24.632	9.717	-9.201	C.2	11	ASN156	0.000	
101	 ND2	23.935	9.225	-8.172	N.pl3	11	ASN156	0.000	
102	 OD1	24.201	9.728	-10.358	O.2	11	ASN156	0.000	
103	   N	28.008	15.971	-9.465	N.am	12	ASP160	0.000	
104	  CA	26.586	15.938	-9.854	C.3	12	ASP160	0.000	
105	   C	25.712	16.553	-8.785	C.2	12	ASP160	0.000	
106	   O	25.952	16.348	-7.602	O.2	12	ASP160	0.000	
107	  CB	26.083	14.513	-10.079	C.3	12	ASP160	0.000	
108	  CG	26.651	13.868	-11.333	C.2	12	ASP160	0.000	
109	 OD1	27.030	14.576	-12.286	O.co2	12	ASP160	0.000	
110	 OD2	26.711	12.622	-11.370	O.co2	12	ASP160	0.000	
111	   N	24.679	17.279	-9.215	N.am	13	ASP161	0.000	
112	  CA	23.713	17.881	-8.308	C.3	13	ASP161	0.000	
113	   C	23.026	16.882	-7.391	C.2	13	ASP161	0.000	
114	   O	22.735	17.207	-6.240	O.2	13	ASP161	0.000	
115	  CB	22.626	18.616	-9.090	C.3	13	ASP161	0.000	
116	  CG	23.130	19.891	-9.757	C.2	13	ASP161	0.000	
117	 OD1	24.297	20.293	-9.543	O.co2	13	ASP161	0.000	
118	 OD2	22.334	20.493	-10.499	O.co2	13	ASP161	0.000	
119	   N	22.733	15.685	-7.909	N.am	14	ILE162	0.000	
120	  CA	22.069	14.649	-7.129	C.3	14	ILE162	0.000	
121	   C	22.808	14.356	-5.822	C.2	14	ILE162	0.000	
122	   O	22.187	14.081	-4.799	O.2	14	ILE162	0.000	
123	  CB	21.867	13.348	-7.956	C.3	14	ILE162	0.000	
124	 CG1	20.832	12.456	-7.295	C.3	14	ILE162	0.000	
125	 CG2	23.170	12.619	-8.206	C.3	14	ILE162	0.000	
126	 CD1	19.427	13.010	-7.376	C.3	14	ILE162	0.000	
@<TRIPOS>BOND
1 1 2 1
2 2 3 1
3 2 5 1
4 3 4 2
5 3 15 1
6 5 6 1
7 6 7 2
8 6 8 1
9 7 11 1
10 8 9 2
11 8 10 1
12 9 12 1
13 10 13 2
14 9 11 1
15 12 14 2
16 13 14 1
17 15 16 1
18 15 21 1
19 16 17 1
20 16 19 1
21 17 18 2
22 17 22 1
23 19 20 1
24 20 21 1
25 22 23 1
26 23 24 1
27 23 26 1
28 24 25 2
29 26 27 1
30 27 28 2
31 27 29 1
32 28 30 1
33 29 31 2
34 30 32 2
35 31 32 1
36 33 34 1
37 34 35 1
38 34 37 1
39 35 36 2
40 37 38 1
41 38 39 1
42 39 40 1
43 39 41 2
44 42 43 1
45 43 44 1
46 43 46 1
47 44 45 2
48 46 47 1
49 46 48 1
50 49 50 1
51 50 51 1
52 50 53 1
53 51 52 2
54 53 54 1
55 54 55 1
56 54 56 1
57 57 58 1
58 58 59 1
59 58 61 1
60 59 60 2
61 61 62 1
62 62 63 1
63 62 64 1
64 65 66 1
65 66 67 1
66 66 69 1
67 67 68 2
68 69 70 1
69 70 71 2
70 70 72 1
71 71 73 1
72 72 74 2
73 73 75 2
74 74 75 1
75 75 76 1
76 77 78 1
77 78 79 1
78 78 81 1
79 79 80 2
80 81 82 1
81 83 84 1
82 84 85 1
83 84 87 1
84 85 86 2
85 85 95 1
86 87 88 1
87 88 89 2
88 88 90 1
89 89 91 1
90 90 92 2
91 91 93 2
92 92 93 1
93 93 94 1
94 95 96 1
95 96 97 1
96 96 99 1
97 97 98 2
98 99 100 1
99 100 101 1
100 100 102 2
101 103 104 1
102 104 105 1
103 104 107 1
104 105 106 2
105 105 111 1
106 107 108 1
107 108 109 2
108 108 110 1
109 111 112 1
110 112 113 1
111 112 115 1
112 113 114 2
113 113 119 1
114 115 116 1
115 116 117 2
116 116 118 1
117 119 120 1
118 120 121 1
119 120 123 1
120 121 122 2
121 123 124 1
122 123 125 1
123 124 126 1
@<TRIPOS>SUBSTRUCTURE
1	TRP97	1	RESIDUE	1 B	TRP
2	PRO98	15	RESIDUE	1 B	PRO
3	PHE99	22	RESIDUE	1 B	PHE
4	GLN101	33	RESIDUE	1 B	GLN
5	VAL103	42	RESIDUE	1 B	VAL
6	LEU108	49	RESIDUE	1 B	LEU
7	LEU110	57	RESIDUE	1 B	LEU
8	TYR113	65	RESIDUE	1 B	TYR
9	CYS152	77	RESIDUE	1 B	CYS
10	TYR155	83	RESIDUE	1 B	TYR
11	ASN156	95	RESIDUE	1 B	ASN
12	ASP160	103	RESIDUE	1 B	ASP
13	ASP161	111	RESIDUE	1 B	ASP
14	ILE162	119	RESIDUE	1 B	ILE
