# created with PyMOL 2.5.2
@<TRIPOS>MOLECULE
BRD4_4C67_TargetProtein
126 122 14              
SMALL
USER_CHARGES
@<TRIPOS>ATOM
1	   N	-3.815	-0.412	-1.208	N.am	1	TRP81	0.000	
2	  CA	-3.646	-1.774	-1.735	C.3	1	TRP81	0.000	
3	   C	-4.912	-2.586	-1.967	C.2	1	TRP81	0.000	
4	   O	-4.999	-3.268	-2.981	O.2	1	TRP81	0.000	
5	  CB	-2.597	-2.552	-0.928	C.3	1	TRP81	0.000	
6	  CG	-2.981	-2.810	0.502	C.2	1	TRP81	0.000	
7	 CD1	-2.678	-2.038	1.619	C.2	1	TRP81	0.000	
8	 CD2	-3.760	-3.938	1.015	C.2	1	TRP81	0.000	
9	 CE2	-3.868	-3.736	2.460	C.2	1	TRP81	0.000	
10	 CE3	-4.362	-5.056	0.439	C.2	1	TRP81	0.000	
11	 NE1	-3.211	-2.594	2.753	N.pl3	1	TRP81	0.000	
12	 CZ2	-4.557	-4.623	3.274	C.2	1	TRP81	0.000	
13	 CZ3	-5.051	-5.942	1.272	C.2	1	TRP81	0.000	
14	 CH2	-5.136	-5.730	2.657	C.2	1	TRP81	0.000	
15	   N	-5.926	-2.507	-1.074	N.am	2	PRO82	0.000	
16	  CA	-7.115	-3.314	-1.382	C.3	2	PRO82	0.000	
17	   C	-7.868	-2.863	-2.635	C.2	2	PRO82	0.000	
18	   O	-8.645	-3.640	-3.192	O.2	2	PRO82	0.000	
19	  CB	-8.002	-3.123	-0.140	C.3	2	PRO82	0.000	
20	  CG	-7.085	-2.619	0.921	C.3	2	PRO82	0.000	
21	  CD	-6.123	-1.749	0.171	C.3	2	PRO82	0.000	
22	   N	-7.639	-1.619	-3.052	N.am	3	PHE83	0.000	
23	  CA	-8.368	-0.992	-4.149	C.3	3	PHE83	0.000	
24	   C	-7.571	-0.941	-5.451	C.2	3	PHE83	0.000	
25	   O	-8.052	-0.401	-6.443	O.2	3	PHE83	0.000	
26	  CB	-8.773	0.426	-3.737	C.3	3	PHE83	0.000	
27	  CG	-9.570	0.476	-2.464	C.2	3	PHE83	0.000	
28	 CD1	-10.933	0.223	-2.474	C.2	3	PHE83	0.000	
29	 CD2	-8.953	0.746	-1.250	C.2	3	PHE83	0.000	
30	 CE1	-11.668	0.255	-1.297	C.2	3	PHE83	0.000	
31	 CE2	-9.685	0.778	-0.073	C.2	3	PHE83	0.000	
32	  CZ	-11.043	0.531	-0.098	C.2	3	PHE83	0.000	
33	   N	-6.769	-3.346	-7.504	N.am	4	GLN85	0.000	
34	  CA	-7.190	-4.352	-8.483	C.3	4	GLN85	0.000	
35	   C	-8.600	-4.817	-8.135	C.2	4	GLN85	0.000	
36	   O	-9.061	-4.593	-7.017	O.2	4	GLN85	0.000	
37	  CB	-6.227	-5.551	-8.493	C.3	4	GLN85	0.000	
38	  CG	-6.024	-6.241	-7.145	C.3	4	GLN85	0.000	
39	  CD	-5.157	-5.435	-6.197	C.2	4	GLN85	0.000	
40	 NE2	-5.644	-5.220	-4.979	N.pl3	4	GLN85	0.000	
41	 OE1	-4.065	-5.003	-6.561	O.2	4	GLN85	0.000	
42	   N	-11.735	-6.841	-6.777	N.am	5	VAL87	0.000	
43	  CA	-11.888	-7.711	-5.619	C.3	5	VAL87	0.000	
44	   C	-11.842	-9.167	-6.072	C.2	5	VAL87	0.000	
45	   O	-12.628	-9.586	-6.918	O.2	5	VAL87	0.000	
46	  CB	-13.206	-7.431	-4.873	C.3	5	VAL87	0.000	
47	 CG1	-13.487	-8.525	-3.848	C.3	5	VAL87	0.000	
48	 CG2	-13.150	-6.064	-4.208	C.3	5	VAL87	0.000	
49	   N	-10.072	-14.055	-1.386	N.am	6	LEU92	0.000	
50	  CA	-10.487	-13.410	-0.143	C.3	6	LEU92	0.000	
51	   C	-11.618	-14.154	0.578	C.2	6	LEU92	0.000	
52	   O	-12.019	-13.758	1.671	O.2	6	LEU92	0.000	
53	  CB	-10.896	-11.958	-0.418	C.3	6	LEU92	0.000	
54	  CG	-9.796	-11.050	-0.980	C.3	6	LEU92	0.000	
55	 CD1	-10.396	-9.759	-1.519	C.3	6	LEU92	0.000	
56	 CD2	-8.740	-10.754	0.075	C.3	6	LEU92	0.000	
57	   N	-14.882	-14.393	-0.159	N.am	7	LEU94	0.000	
58	  CA	-16.067	-13.542	-0.076	C.3	7	LEU94	0.000	
59	   C	-17.068	-13.995	-1.136	C.2	7	LEU94	0.000	
60	   O	-17.313	-13.286	-2.110	O.2	7	LEU94	0.000	
61	  CB	-15.689	-12.079	-0.311	C.3	7	LEU94	0.000	
62	  CG	-14.607	-11.488	0.591	C.3	7	LEU94	0.000	
63	 CD1	-14.270	-10.071	0.149	C.3	7	LEU94	0.000	
64	 CD2	-15.051	-11.524	2.041	C.3	7	LEU94	0.000	
65	   N	-19.776	-11.567	-2.427	N.am	8	TYR97	0.000	
66	  CA	-19.400	-10.213	-2.845	C.3	8	TYR97	0.000	
67	   C	-20.088	-9.799	-4.145	C.2	8	TYR97	0.000	
68	   O	-20.689	-8.729	-4.218	O.2	8	TYR97	0.000	
69	  CB	-17.874	-10.041	-2.980	C.3	8	TYR97	0.000	
70	  CG	-17.493	-8.609	-3.289	C.2	8	TYR97	0.000	
71	 CD1	-17.354	-7.669	-2.276	C.2	8	TYR97	0.000	
72	 CD2	-17.339	-8.177	-4.602	C.2	8	TYR97	0.000	
73	 CE1	-17.047	-6.350	-2.560	C.2	8	TYR97	0.000	
74	 CE2	-17.029	-6.862	-4.894	C.2	8	TYR97	0.000	
75	  CZ	-16.880	-5.951	-3.868	C.2	8	TYR97	0.000	
76	  OH	-16.580	-4.636	-4.158	O.3	8	TYR97	0.000	
77	   N	-17.785	-0.381	-1.478	N.am	9	CYS136	0.000	
78	  CA	-17.141	-0.734	-0.222	C.3	9	CYS136	0.000	
79	   C	-18.088	-0.545	0.961	C.2	9	CYS136	0.000	
80	   O	-18.186	-1.405	1.835	O.2	9	CYS136	0.000	
81	  CB	-15.892	0.114	-0.029	C.3	9	CYS136	0.000	
82	  SG	-14.864	-0.436	1.334	S.3	9	CYS136	0.000	
83	   N	-21.089	-3.173	0.752	N.am	10	TYR139	0.000	
84	  CA	-20.757	-4.553	1.096	C.3	10	TYR139	0.000	
85	   C	-20.399	-4.751	2.569	C.2	10	TYR139	0.000	
86	   O	-20.800	-5.738	3.175	O.2	10	TYR139	0.000	
87	  CB	-19.616	-5.087	0.216	C.3	10	TYR139	0.000	
88	  CG	-19.279	-6.521	0.554	C.2	10	TYR139	0.000	
89	 CD1	-20.153	-7.553	0.225	C.2	10	TYR139	0.000	
90	 CD2	-18.118	-6.842	1.248	C.2	10	TYR139	0.000	
91	 CE1	-19.872	-8.864	0.560	C.2	10	TYR139	0.000	
92	 CE2	-17.824	-8.153	1.585	C.2	10	TYR139	0.000	
93	  CZ	-18.699	-9.161	1.238	C.2	10	TYR139	0.000	
94	  OH	-18.404	-10.463	1.578	O.3	10	TYR139	0.000	
95	   N	-19.643	-3.812	3.131	N.am	11	ASN140	0.000	
96	  CA	-19.039	-3.987	4.457	C.3	11	ASN140	0.000	
97	   C	-19.840	-3.350	5.588	C.2	11	ASN140	0.000	
98	   O	-20.845	-2.689	5.348	O.2	11	ASN140	0.000	
99	  CB	-17.611	-3.444	4.428	C.3	11	ASN140	0.000	
100	  CG	-16.719	-4.236	3.492	C.2	11	ASN140	0.000	
101	 ND2	-16.413	-3.666	2.329	N.pl3	11	ASN140	0.000	
102	 OD1	-16.327	-5.361	3.803	O.2	11	ASN140	0.000	
103	   N	-12.306	-2.150	9.097	N.am	12	ASP145	0.000	
104	  CA	-11.028	-1.610	8.642	C.3	12	ASP145	0.000	
105	   C	-11.101	-1.148	7.191	C.2	12	ASP145	0.000	
106	   O	-10.622	-0.066	6.873	O.2	12	ASP145	0.000	
107	  CB	-9.897	-2.635	8.799	C.3	12	ASP145	0.000	
108	  CG	-9.401	-2.756	10.231	C.2	12	ASP145	0.000	
109	 OD1	-9.608	-1.818	11.029	O.co2	12	ASP145	0.000	
110	 OD2	-8.786	-3.799	10.550	O.co2	12	ASP145	0.000	
111	   N	-11.698	-1.955	6.316	N.am	13	ILE146	0.000	
112	  CA	-11.765	-1.597	4.893	C.3	13	ILE146	0.000	
113	   C	-12.578	-0.316	4.665	C.2	13	ILE146	0.000	
114	   O	-12.263	0.461	3.773	O.2	13	ILE146	0.000	
115	  CB	-12.325	-2.751	4.023	C.3	13	ILE146	0.000	
116	 CG1	-12.095	-2.477	2.528	C.3	13	ILE146	0.000	
117	 CG2	-13.809	-2.976	4.304	C.3	13	ILE146	0.000	
118	 CD1	-10.639	-2.369	2.131	C.3	13	ILE146	0.000	
119	   N	-10.446	2.568	5.562	N.am	14	MET149	0.000	
120	  CA	-9.483	2.754	4.480	C.3	14	MET149	0.000	
121	   C	-10.118	3.531	3.328	C.2	14	MET149	0.000	
122	   O	-9.546	4.508	2.843	O.2	14	MET149	0.000	
123	  CB	-8.950	1.401	4.013	C.3	14	MET149	0.000	
124	  CG	-8.122	0.725	5.089	C.3	14	MET149	0.000	
125	  SD	-7.691	-0.978	4.733	S.3	14	MET149	0.000	
126	  CE	-6.277	-0.682	3.698	C.3	14	MET149	0.000	
@<TRIPOS>BOND
1 1 2 1
2 2 3 1
3 2 5 1
4 3 4 2
5 3 15 1
6 5 6 1
7 6 7 2
8 6 8 1
9 7 11 1
10 8 9 2
11 8 10 1
12 9 12 1
13 10 13 2
14 9 11 1
15 12 14 2
16 13 14 1
17 15 16 1
18 15 21 1
19 16 17 1
20 16 19 1
21 17 18 2
22 17 22 1
23 19 20 1
24 20 21 1
25 22 23 1
26 23 24 1
27 23 26 1
28 24 25 2
29 26 27 1
30 27 28 2
31 27 29 1
32 28 30 1
33 29 31 2
34 30 32 2
35 31 32 1
36 33 34 1
37 34 35 1
38 34 37 1
39 35 36 2
40 37 38 1
41 38 39 1
42 39 40 1
43 39 41 2
44 42 43 1
45 43 44 1
46 43 46 1
47 44 45 2
48 46 47 1
49 46 48 1
50 49 50 1
51 50 51 1
52 50 53 1
53 51 52 2
54 53 54 1
55 54 55 1
56 54 56 1
57 57 58 1
58 58 59 1
59 58 61 1
60 59 60 2
61 61 62 1
62 62 63 1
63 62 64 1
64 65 66 1
65 66 67 1
66 66 69 1
67 67 68 2
68 69 70 1
69 70 71 2
70 70 72 1
71 71 73 1
72 72 74 2
73 73 75 2
74 74 75 1
75 75 76 1
76 77 78 1
77 78 79 1
78 78 81 1
79 79 80 2
80 81 82 1
81 83 84 1
82 84 85 1
83 84 87 1
84 85 86 2
85 85 95 1
86 87 88 1
87 88 89 2
88 88 90 1
89 89 91 1
90 90 92 2
91 91 93 2
92 92 93 1
93 93 94 1
94 95 96 1
95 96 97 1
96 96 99 1
97 97 98 2
98 99 100 1
99 100 101 1
100 100 102 2
101 103 104 1
102 104 105 1
103 104 107 1
104 105 106 2
105 105 111 1
106 107 108 1
107 108 109 2
108 108 110 1
109 111 112 1
110 112 113 1
111 112 115 1
112 113 114 2
113 115 116 1
114 115 117 1
115 116 118 1
116 119 120 1
117 120 121 1
118 120 123 1
119 121 122 2
120 123 124 1
121 124 125 1
122 125 126 1
@<TRIPOS>SUBSTRUCTURE
1	TRP81	1	RESIDUE	1 B	TRP
2	PRO82	15	RESIDUE	1 B	PRO
3	PHE83	22	RESIDUE	1 B	PHE
4	GLN85	33	RESIDUE	1 B	GLN
5	VAL87	42	RESIDUE	1 B	VAL
6	LEU92	49	RESIDUE	1 B	LEU
7	LEU94	57	RESIDUE	1 B	LEU
8	TYR97	65	RESIDUE	1 B	TYR
9	CYS136	77	RESIDUE	1 B	CYS
10	TYR139	83	RESIDUE	1 B	TYR
11	ASN140	95	RESIDUE	1 B	ASN
12	ASP145	103	RESIDUE	1 B	ASP
13	ILE146	111	RESIDUE	1 B	ILE
14	MET149	119	RESIDUE	1 B	MET
