# created with PyMOL 2.5.2
@<TRIPOS>MOLECULE
EGFR_5X27_TargetProtein
158 148 21              
SMALL
USER_CHARGES
@<TRIPOS>ATOM
1	   N	-46.339	3.379	-18.650	N.am	1	LEU718	0.000	
2	  CA	-47.169	2.331	-18.097	C.3	1	LEU718	0.000	
3	   C	-46.502	0.985	-18.228	C.2	1	LEU718	0.000	
4	   O	-46.453	0.202	-17.292	O.2	1	LEU718	0.000	
5	  CB	-48.512	2.315	-18.803	C.3	1	LEU718	0.000	
6	  CG	-49.305	3.575	-18.527	C.3	1	LEU718	0.000	
7	 CD1	-50.568	3.565	-19.351	C.3	1	LEU718	0.000	
8	 CD2	-49.629	3.635	-17.054	C.3	1	LEU718	0.000	
9	   N	-45.966	0.731	-19.407	N.am	2	GLY719	0.000	
10	  CA	-45.229	-0.485	-19.645	C.3	2	GLY719	0.000	
11	   C	-44.242	-0.310	-20.766	C.2	2	GLY719	0.000	
12	   O	-44.482	0.448	-21.690	O.2	2	GLY719	0.000	
13	   N	-45.372	1.867	-23.727	N.am	3	VAL726	0.000	
14	  CA	-46.656	2.539	-23.612	C.3	3	VAL726	0.000	
15	   C	-46.675	3.550	-22.482	C.2	3	VAL726	0.000	
16	   O	-46.261	3.245	-21.381	O.2	3	VAL726	0.000	
17	  CB	-47.773	1.528	-23.368	C.3	3	VAL726	0.000	
18	 CG1	-49.120	2.180	-23.555	C.3	3	VAL726	0.000	
19	 CG2	-47.630	0.351	-24.305	C.3	3	VAL726	0.000	
20	   N	-53.533	6.301	-23.381	N.am	4	ALA743	0.000	
21	  CA	-52.296	5.569	-23.424	C.3	4	ALA743	0.000	
22	   C	-51.719	5.719	-24.838	C.2	4	ALA743	0.000	
23	   O	-52.434	5.615	-25.835	O.2	4	ALA743	0.000	
24	  CB	-52.504	4.156	-23.072	C.3	4	ALA743	0.000	
25	   N	-49.020	4.355	-27.580	N.am	5	LYS745	0.000	
26	  CA	-48.165	3.218	-27.829	C.3	5	LYS745	0.000	
27	   C	-47.173	3.544	-28.910	C.2	5	LYS745	0.000	
28	   O	-47.541	3.833	-30.030	O.2	5	LYS745	0.000	
29	  CB	-48.986	2.014	-28.246	C.3	5	LYS745	0.000	
30	  CG	-48.268	1.119	-29.226	C.3	5	LYS745	0.000	
31	  CD	-48.209	-0.302	-28.716	C.3	5	LYS745	0.000	
32	  CE	-49.072	-1.209	-29.562	C.3	5	LYS745	0.000	
33	  NZ	-49.051	-2.605	-29.061	N.4	5	LYS745	0.000	
34	   N	-52.277	-2.616	-37.029	N.am	6	GLU762	0.000	
35	  CA	-52.957	-2.666	-35.734	C.3	6	GLU762	0.000	
36	   C	-53.874	-1.471	-35.551	C.2	6	GLU762	0.000	
37	   O	-55.009	-1.608	-35.131	O.2	6	GLU762	0.000	
38	  CB	-51.927	-2.741	-34.617	C.3	6	GLU762	0.000	
39	  CG	-52.463	-2.560	-33.259	C.3	6	GLU762	0.000	
40	  CD	-51.387	-2.749	-32.229	C.2	6	GLU762	0.000	
41	 OE1	-50.822	-1.724	-31.835	O.co2	6	GLU762	0.000	
42	 OE2	-51.085	-3.901	-31.826	O.co2	6	GLU762	0.000	
43	   N	-58.056	-1.067	-34.910	N.am	7	MET766	0.000	
44	  CA	-58.595	-0.376	-33.780	C.3	7	MET766	0.000	
45	   C	-59.448	0.793	-34.161	C.2	7	MET766	0.000	
46	   O	-60.338	1.144	-33.455	O.2	7	MET766	0.000	
47	  CB	-57.469	0.124	-32.951	C.3	7	MET766	0.000	
48	  CG	-56.997	-0.860	-31.952	C.3	7	MET766	0.000	
49	  SD	-56.472	0.129	-30.604	S.3	7	MET766	0.000	
50	  CE	-54.960	-0.599	-30.323	C.3	7	MET766	0.000	
51	   N	-49.830	5.302	-31.325	N.am	8	LEU788	0.000	
52	  CA	-51.246	5.022	-31.286	C.3	8	LEU788	0.000	
53	   C	-51.817	5.584	-30.013	C.2	8	LEU788	0.000	
54	   O	-51.323	5.310	-28.942	O.2	8	LEU788	0.000	
55	  CB	-51.479	3.525	-31.313	C.3	8	LEU788	0.000	
56	  CG	-51.483	2.914	-32.699	C.3	8	LEU788	0.000	
57	 CD1	-50.745	3.845	-33.630	C.3	8	LEU788	0.000	
58	 CD2	-50.817	1.560	-32.660	C.3	8	LEU788	0.000	
59	   N	-55.100	5.850	-27.606	N.am	9	THR790	0.000	
60	  CA	-56.307	5.145	-27.302	C.3	9	THR790	0.000	
61	   C	-56.674	5.502	-25.888	C.2	9	THR790	0.000	
62	   O	-55.850	5.987	-25.156	O.2	9	THR790	0.000	
63	  CB	-56.076	3.649	-27.427	C.3	9	THR790	0.000	
64	 CG2	-55.156	3.192	-26.348	C.3	9	THR790	0.000	
65	 OG1	-57.326	2.966	-27.323	O.3	9	THR790	0.000	
66	   N	-57.919	5.289	-25.507	N.am	10	GLN791	0.000	
67	  CA	-58.338	5.614	-24.164	C.3	10	GLN791	0.000	
68	   C	-57.580	4.803	-23.153	C.2	10	GLN791	0.000	
69	   O	-57.317	3.631	-23.346	O.2	10	GLN791	0.000	
70	  CB	-59.817	5.333	-23.976	C.3	10	GLN791	0.000	
71	  CG	-60.154	4.923	-22.559	C.3	10	GLN791	0.000	
72	  CD	-61.556	4.397	-22.410	C.2	10	GLN791	0.000	
73	 NE2	-62.391	5.144	-21.726	N.pl3	10	GLN791	0.000	
74	 OE1	-61.885	3.338	-22.917	O.2	10	GLN791	0.000	
75	   N	-57.230	5.459	-22.064	N.am	11	LEU792	0.000	
76	  CA	-56.544	4.832	-20.962	C.3	11	LEU792	0.000	
77	   C	-57.474	4.025	-20.102	C.2	11	LEU792	0.000	
78	   O	-58.565	4.451	-19.787	O.2	11	LEU792	0.000	
79	  CB	-55.893	5.898	-20.100	C.3	11	LEU792	0.000	
80	  CG	-55.285	5.450	-18.786	C.3	11	LEU792	0.000	
81	 CD1	-53.808	5.205	-18.955	C.3	11	LEU792	0.000	
82	 CD2	-55.502	6.521	-17.753	C.3	11	LEU792	0.000	
83	   N	-57.013	2.854	-19.710	N.am	12	MET793	0.000	
84	  CA	-57.675	2.027	-18.700	C.3	12	MET793	0.000	
85	   C	-56.928	2.082	-17.371	C.2	12	MET793	0.000	
86	   O	-55.846	1.520	-17.231	O.2	12	MET793	0.000	
87	  CB	-57.742	0.602	-19.197	C.3	12	MET793	0.000	
88	  CG	-58.174	0.565	-20.657	C.3	12	MET793	0.000	
89	  SD	-59.927	0.992	-20.800	S.3	12	MET793	0.000	
90	  CE	-60.609	-0.641	-20.693	C.3	12	MET793	0.000	
91	   N	-57.491	2.796	-16.402	N.am	13	PRO794	0.000	
92	  CA	-56.766	3.099	-15.171	C.3	13	PRO794	0.000	
93	   C	-56.208	1.884	-14.449	C.2	13	PRO794	0.000	
94	   O	-55.082	2.002	-13.980	O.2	13	PRO794	0.000	
95	  CB	-57.814	3.797	-14.344	C.3	13	PRO794	0.000	
96	  CG	-58.649	4.486	-15.373	C.3	13	PRO794	0.000	
97	  CD	-58.718	3.592	-16.536	C.3	13	PRO794	0.000	
98	   N	-56.936	0.780	-14.408	N.am	14	PHE795	0.000	
99	  CA	-56.573	-0.373	-13.609	C.3	14	PHE795	0.000	
100	   C	-55.718	-1.399	-14.317	C.2	14	PHE795	0.000	
101	   O	-55.332	-2.392	-13.737	O.2	14	PHE795	0.000	
102	  CB	-57.829	-1.008	-13.062	C.3	14	PHE795	0.000	
103	  CG	-58.629	-0.082	-12.216	C.2	14	PHE795	0.000	
104	 CD1	-59.515	0.786	-12.783	C.2	14	PHE795	0.000	
105	 CD2	-58.464	-0.064	-10.856	C.2	14	PHE795	0.000	
106	 CE1	-60.242	1.649	-12.009	C.2	14	PHE795	0.000	
107	 CE2	-59.187	0.792	-10.073	C.2	14	PHE795	0.000	
108	  CZ	-60.080	1.651	-10.651	C.2	14	PHE795	0.000	
109	   N	-55.423	-1.147	-15.576	N.am	15	GLY796	0.000	
110	  CA	-54.506	-1.981	-16.309	C.3	15	GLY796	0.000	
111	   C	-55.127	-3.236	-16.847	C.2	15	GLY796	0.000	
112	   O	-56.331	-3.384	-16.876	O.2	15	GLY796	0.000	
113	   N	-54.276	-4.141	-17.294	N.am	16	CYS797	0.000	
114	  CA	-54.723	-5.397	-17.845	C.3	16	CYS797	0.000	
115	   C	-55.299	-6.295	-16.778	C.2	16	CYS797	0.000	
116	   O	-54.882	-6.259	-15.639	O.2	16	CYS797	0.000	
117	  CB	-53.597	-6.081	-18.601	C.3	16	CYS797	0.000	
118	  SG	-52.676	-7.293	-17.671	S.3	16	CYS797	0.000	
119	   N	-53.025	-8.954	-14.667	N.am	17	ASP800	0.000	
120	  CA	-52.388	-8.362	-13.511	C.3	17	ASP800	0.000	
121	   C	-53.386	-8.119	-12.425	C.2	17	ASP800	0.000	
122	   O	-53.063	-8.318	-11.272	O.2	17	ASP800	0.000	
123	  CB	-51.707	-7.051	-13.859	C.3	17	ASP800	0.000	
124	  CG	-50.428	-7.253	-14.623	C.2	17	ASP800	0.000	
125	 OD1	-49.789	-6.225	-14.942	O.co2	17	ASP800	0.000	
126	 OD2	-50.058	-8.429	-14.883	O.co2	17	ASP800	0.000	
127	   N	-53.233	-9.279	-8.458	N.am	18	GLU804	0.000	
128	  CA	-53.065	-8.293	-7.407	C.3	18	GLU804	0.000	
129	   C	-54.172	-8.323	-6.366	C.2	18	GLU804	0.000	
130	   O	-53.902	-8.144	-5.189	O.2	18	GLU804	0.000	
131	  CB	-52.988	-6.894	-8.002	C.3	18	GLU804	0.000	
132	  CG	-51.634	-6.234	-7.918	C.3	18	GLU804	0.000	
133	  CD	-51.086	-5.852	-9.295	C.2	18	GLU804	0.000	
134	 OE1	-51.265	-4.687	-9.744	O.co2	18	GLU804	0.000	
135	 OE2	-50.477	-6.738	-9.933	O.co2	18	GLU804	0.000	
136	   N	-58.208	-5.313	-20.743	N.am	19	LEU844	0.000	
137	  CA	-57.881	-4.159	-19.889	C.3	19	LEU844	0.000	
138	   C	-59.087	-3.701	-19.091	C.2	19	LEU844	0.000	
139	   O	-60.207	-3.846	-19.535	O.2	19	LEU844	0.000	
140	  CB	-57.338	-2.974	-20.711	C.3	19	LEU844	0.000	
141	  CG	-56.285	-3.260	-21.788	C.3	19	LEU844	0.000	
142	 CD1	-56.042	-2.015	-22.628	C.3	19	LEU844	0.000	
143	 CD2	-54.996	-3.792	-21.190	C.3	19	LEU844	0.000	
144	   N	-58.217	-5.795	-26.132	N.am	20	THR854	0.000	
145	  CA	-57.183	-5.017	-26.785	C.3	20	THR854	0.000	
146	   C	-56.202	-5.882	-27.577	C.2	20	THR854	0.000	
147	   O	-56.425	-7.074	-27.753	O.2	20	THR854	0.000	
148	  CB	-56.441	-4.197	-25.745	C.3	20	THR854	0.000	
149	 CG2	-55.418	-5.047	-24.996	C.3	20	THR854	0.000	
150	 OG1	-55.797	-3.082	-26.378	O.3	20	THR854	0.000	
151	   N	-55.125	-5.261	-28.051	N.am	21	ASP855	0.000	
152	  CA	-54.051	-5.929	-28.779	C.3	21	ASP855	0.000	
153	   C	-54.538	-6.612	-30.027	C.2	21	ASP855	0.000	
154	   O	-54.539	-7.842	-30.128	O.2	21	ASP855	0.000	
155	  CB	-53.318	-6.921	-27.898	C.3	21	ASP855	0.000	
156	  CG	-51.832	-6.739	-27.975	C.2	21	ASP855	0.000	
157	 OD1	-51.225	-7.293	-28.931	O.co2	21	ASP855	0.000	
158	 OD2	-51.292	-6.022	-27.095	O.co2	21	ASP855	0.000	
@<TRIPOS>BOND
1 1 2 1
2 2 3 1
3 2 5 1
4 3 4 2
5 3 9 1
6 5 6 1
7 6 7 1
8 6 8 1
9 9 10 1
10 10 11 1
11 11 12 2
12 13 14 1
13 14 15 1
14 14 17 1
15 15 16 2
16 17 18 1
17 17 19 1
18 20 21 1
19 21 22 1
20 21 24 1
21 22 23 2
22 25 26 1
23 26 27 1
24 26 29 1
25 27 28 2
26 29 30 1
27 30 31 1
28 31 32 1
29 32 33 1
30 34 35 1
31 35 36 1
32 35 38 1
33 36 37 2
34 38 39 1
35 39 40 1
36 40 41 2
37 40 42 1
38 43 44 1
39 44 45 1
40 44 47 1
41 45 46 2
42 47 48 1
43 48 49 1
44 49 50 1
45 51 52 1
46 52 53 1
47 52 55 1
48 53 54 2
49 55 56 1
50 56 57 1
51 56 58 1
52 59 60 1
53 60 61 1
54 60 63 1
55 61 62 2
56 61 66 1
57 63 64 1
58 63 65 1
59 66 67 1
60 67 68 1
61 67 70 1
62 68 69 2
63 68 75 1
64 70 71 1
65 71 72 1
66 72 73 1
67 72 74 2
68 75 76 1
69 76 77 1
70 76 79 1
71 77 78 2
72 77 83 1
73 79 80 1
74 80 81 1
75 80 82 1
76 83 84 1
77 84 85 1
78 84 87 1
79 85 86 2
80 85 91 1
81 87 88 1
82 88 89 1
83 89 90 1
84 91 92 1
85 91 97 1
86 92 93 1
87 92 95 1
88 93 94 2
89 93 98 1
90 95 96 1
91 96 97 1
92 98 99 1
93 99 100 1
94 99 102 1
95 100 101 2
96 100 109 1
97 102 103 1
98 103 104 2
99 103 105 1
100 104 106 1
101 105 107 2
102 106 108 2
103 107 108 1
104 109 110 1
105 110 111 1
106 111 112 2
107 111 113 1
108 113 114 1
109 114 115 1
110 114 117 1
111 115 116 2
112 117 118 1
113 119 120 1
114 120 121 1
115 120 123 1
116 121 122 2
117 123 124 1
118 124 125 2
119 124 126 1
120 127 128 1
121 128 129 1
122 128 131 1
123 129 130 2
124 131 132 1
125 132 133 1
126 133 134 2
127 133 135 1
128 136 137 1
129 137 138 1
130 137 140 1
131 138 139 2
132 140 141 1
133 141 142 1
134 141 143 1
135 144 145 1
136 145 146 1
137 145 148 1
138 146 147 2
139 146 151 1
140 148 149 1
141 148 150 1
142 151 152 1
143 152 153 1
144 152 155 1
145 153 154 2
146 155 156 1
147 156 157 2
148 156 158 1
@<TRIPOS>SUBSTRUCTURE
1	LEU718	1	RESIDUE	1 B	LEU
2	GLY719	9	RESIDUE	1 B	GLY
3	VAL726	13	RESIDUE	1 B	VAL
4	ALA743	20	RESIDUE	1 B	ALA
5	LYS745	25	RESIDUE	1 B	LYS
6	GLU762	34	RESIDUE	1 B	GLU
7	MET766	43	RESIDUE	1 B	MET
8	LEU788	51	RESIDUE	1 B	LEU
9	THR790	59	RESIDUE	1 B	THR
10	GLN791	66	RESIDUE	1 B	GLN
11	LEU792	75	RESIDUE	1 B	LEU
12	MET793	83	RESIDUE	1 B	MET
13	PRO794	91	RESIDUE	1 B	PRO
14	PHE795	98	RESIDUE	1 B	PHE
15	GLY796	109	RESIDUE	1 B	GLY
16	CYS797	113	RESIDUE	1 B	CYS
17	ASP800	119	RESIDUE	1 B	ASP
18	GLU804	127	RESIDUE	1 B	GLU
19	LEU844	136	RESIDUE	1 B	LEU
20	THR854	144	RESIDUE	1 B	THR
21	ASP855	151	RESIDUE	1 B	ASP
