# created with PyMOL 2.5.2
@<TRIPOS>MOLECULE
WDR5_6DAK2_TargetProtein
170 166 20              
SMALL
USER_CHARGES
@<TRIPOS>ATOM
1	   N	-4.893	26.921	-2.478	N.am	1	SER49	0.000	
2	  CA	-6.318	26.657	-2.348	C.3	1	SER49	0.000	
3	   C	-6.924	25.994	-3.583	C.2	1	SER49	0.000	
4	   O	-7.732	25.073	-3.461	O.2	1	SER49	0.000	
5	  CB	-7.061	27.956	-2.044	C.3	1	SER49	0.000	
6	  OG	-6.835	28.923	-3.046	O.3	1	SER49	0.000	
7	   N	-7.348	33.779	-0.707	N.am	2	ILE90	0.000	
8	  CA	-8.202	33.395	-1.837	C.3	2	ILE90	0.000	
9	   C	-8.525	31.910	-1.738	C.2	2	ILE90	0.000	
10	   O	-7.639	31.097	-1.494	O.2	2	ILE90	0.000	
11	  CB	-7.511	33.695	-3.179	C.3	2	ILE90	0.000	
12	 CG1	-7.187	35.184	-3.278	C.3	2	ILE90	0.000	
13	 CG2	-8.374	33.255	-4.357	C.3	2	ILE90	0.000	
14	 CD1	-6.238	35.494	-4.405	C.3	2	ILE90	0.000	
15	   N	-9.795	31.555	-1.931	N.am	3	SER91	0.000	
16	  CA	-10.211	30.161	-1.824	C.3	3	SER91	0.000	
17	   C	-10.423	29.481	-3.171	C.2	3	SER91	0.000	
18	   O	-10.386	28.267	-3.243	O.2	3	SER91	0.000	
19	  CB	-11.512	30.046	-1.019	C.3	3	SER91	0.000	
20	  OG	-11.290	30.357	0.347	O.3	3	SER91	0.000	
21	   N	-10.651	30.254	-4.228	N.am	4	ASP92	0.000	
22	  CA	-10.925	29.659	-5.533	C.3	4	ASP92	0.000	
23	   C	-10.580	30.626	-6.655	C.2	4	ASP92	0.000	
24	   O	-10.535	31.842	-6.455	O.2	4	ASP92	0.000	
25	  CB	-12.412	29.247	-5.629	C.3	4	ASP92	0.000	
26	  CG	-12.663	28.143	-6.646	C.2	4	ASP92	0.000	
27	 OD1	-11.703	27.603	-7.223	O.co2	4	ASP92	0.000	
28	 OD2	-13.851	27.774	-6.845	O.co2	4	ASP92	0.000	
29	   N	-17.198	35.085	3.804	N.am	5	TYR131	0.000	
30	  CA	-16.187	34.557	2.878	C.3	5	TYR131	0.000	
31	   C	-16.788	34.011	1.586	C.2	5	TYR131	0.000	
32	   O	-17.799	33.305	1.625	O.2	5	TYR131	0.000	
33	  CB	-15.384	33.422	3.524	C.3	5	TYR131	0.000	
34	  CG	-14.906	33.657	4.932	C.2	5	TYR131	0.000	
35	 CD1	-14.279	34.843	5.295	C.2	5	TYR131	0.000	
36	 CD2	-15.071	32.677	5.900	C.2	5	TYR131	0.000	
37	 CE1	-13.830	35.045	6.591	C.2	5	TYR131	0.000	
38	 CE2	-14.629	32.870	7.197	C.2	5	TYR131	0.000	
39	  CZ	-14.012	34.054	7.537	C.2	5	TYR131	0.000	
40	  OH	-13.580	34.237	8.831	O.3	5	TYR131	0.000	
41	   N	-16.241	31.326	-1.201	N.am	6	PHE133	0.000	
42	  CA	-15.497	30.056	-1.177	C.3	6	PHE133	0.000	
43	   C	-15.280	29.406	-2.541	C.2	6	PHE133	0.000	
44	   O	-14.322	28.650	-2.732	O.2	6	PHE133	0.000	
45	  CB	-16.237	29.077	-0.270	C.3	6	PHE133	0.000	
46	  CG	-15.432	27.871	0.150	C.2	6	PHE133	0.000	
47	 CD1	-14.351	28.004	1.014	C.2	6	PHE133	0.000	
48	 CD2	-15.808	26.594	-0.256	C.2	6	PHE133	0.000	
49	 CE1	-13.640	26.880	1.433	C.2	6	PHE133	0.000	
50	 CE2	-15.107	25.474	0.161	C.2	6	PHE133	0.000	
51	  CZ	-14.026	25.615	1.009	C.2	6	PHE133	0.000	
52	   N	-16.160	29.691	-3.491	N.am	7	CYS134	0.000	
53	  CA	-16.140	28.997	-4.771	C.3	7	CYS134	0.000	
54	   C	-16.633	29.910	-5.891	C.2	7	CYS134	0.000	
55	   O	-17.493	30.775	-5.664	O.2	7	CYS134	0.000	
56	  CB	-17.011	27.727	-4.687	C.3	7	CYS134	0.000	
57	  SG	-18.681	27.943	-3.953	S.3	7	CYS134	0.000	
58	   N	-19.909	31.461	2.503	N.am	8	PHE149	0.000	
59	  CA	-20.237	31.056	3.861	C.3	8	PHE149	0.000	
60	   C	-21.541	31.690	4.312	C.2	8	PHE149	0.000	
61	   O	-22.119	31.255	5.301	O.2	8	PHE149	0.000	
62	  CB	-19.119	31.439	4.839	C.3	8	PHE149	0.000	
63	  CG	-17.992	30.445	4.904	C.2	8	PHE149	0.000	
64	 CD1	-17.022	30.409	3.912	C.2	8	PHE149	0.000	
65	 CD2	-17.885	29.566	5.972	C.2	8	PHE149	0.000	
66	 CE1	-15.969	29.505	3.976	C.3	8	PHE149	0.000	
67	 CE2	-16.838	28.652	6.042	C.2	8	PHE149	0.000	
68	  CZ	-15.878	28.625	5.043	C.3	8	PHE149	0.000	
69	   N	-20.232	25.016	-0.515	N.am	9	SER175	0.000	
70	  CA	-18.881	24.498	-0.752	C.3	9	SER175	0.000	
71	   C	-18.457	24.519	-2.215	C.2	9	SER175	0.000	
72	   O	-17.258	24.523	-2.501	O.2	9	SER175	0.000	
73	  CB	-18.765	23.070	-0.224	C.3	9	SER175	0.000	
74	  OG	-19.826	22.268	-0.718	O.3	9	SER175	0.000	
75	   N	-19.409	24.510	-3.145	N.am	10	ALA176	0.000	
76	  CA	-19.064	24.519	-4.565	C.3	10	ALA176	0.000	
77	   C	-20.203	25.012	-5.442	C.2	10	ALA176	0.000	
78	   O	-21.380	24.872	-5.081	O.2	10	ALA176	0.000	
79	  CB	-18.626	23.127	-5.022	C.3	10	ALA176	0.000	
80	   N	-22.624	22.164	3.175	N.am	11	TYR191	0.000	
81	  CA	-22.527	21.422	4.413	C.3	11	TYR191	0.000	
82	   C	-23.903	21.019	4.964	C.2	11	TYR191	0.000	
83	   O	-23.992	20.213	5.891	O.2	11	TYR191	0.000	
84	  CB	-21.767	22.257	5.442	C.3	11	TYR191	0.000	
85	  CG	-20.269	22.099	5.354	C.2	11	TYR191	0.000	
86	 CD1	-19.563	22.561	4.257	C.2	11	TYR191	0.000	
87	 CD2	-19.572	21.472	6.371	C.2	11	TYR191	0.000	
88	 CE1	-18.177	22.404	4.179	C.2	11	TYR191	0.000	
89	 CE2	-18.191	21.316	6.307	C.2	11	TYR191	0.000	
90	  CZ	-17.510	21.772	5.209	C.2	11	TYR191	0.000	
91	  OH	-16.139	21.603	5.166	O.3	11	TYR191	0.000	
92	   N	-19.073	18.455	0.185	N.am	12	SER218	0.000	
93	  CA	-17.905	19.323	0.193	C.3	12	SER218	0.000	
94	   C	-17.448	19.742	-1.192	C.2	12	SER218	0.000	
95	   O	-16.573	20.591	-1.324	O.2	12	SER218	0.000	
96	  CB	-16.756	18.621	0.910	C.3	12	SER218	0.000	
97	  OG	-16.593	17.309	0.402	O.3	12	SER218	0.000	
98	   N	-18.012	19.131	-2.224	N.am	13	PHE219	0.000	
99	  CA	-17.700	19.502	-3.599	C.3	13	PHE219	0.000	
100	   C	-18.726	18.915	-4.557	C.2	13	PHE219	0.000	
101	   O	-19.248	17.831	-4.310	O.2	13	PHE219	0.000	
102	  CB	-16.302	19.016	-4.002	C.3	13	PHE219	0.000	
103	  CG	-15.918	19.407	-5.399	C.2	13	PHE219	0.000	
104	 CD1	-15.497	20.701	-5.671	C.2	13	PHE219	0.000	
105	 CD2	-16.018	18.500	-6.448	C.2	13	PHE219	0.000	
106	 CE1	-15.167	21.085	-6.969	C.2	13	PHE219	0.000	
107	 CE2	-15.696	18.872	-7.741	C.2	13	PHE219	0.000	
108	  CZ	-15.262	20.164	-7.999	C.2	13	PHE219	0.000	
109	   N	-12.722	16.281	6.507	N.am	14	LYS259	0.000	
110	  CA	-12.580	17.615	7.080	C.3	14	LYS259	0.000	
111	   C	-12.555	18.750	6.056	C.2	14	LYS259	0.000	
112	   O	-13.093	19.829	6.311	O.2	14	LYS259	0.000	
113	  CB	-11.305	17.692	7.931	C.3	14	LYS259	0.000	
114	  CG	-11.204	18.993	8.717	C.3	14	LYS259	0.000	
115	  CD	-9.815	19.239	9.282	C.3	14	LYS259	0.000	
116	  CE	-9.743	20.625	9.915	C.3	14	LYS259	0.000	
117	  NZ	-8.340	21.077	10.136	N.4	14	LYS259	0.000	
118	   N	-11.920	18.519	4.912	N.am	15	TYR260	0.000	
119	  CA	-11.697	19.591	3.951	C.3	15	TYR260	0.000	
120	   C	-12.507	19.463	2.673	C.2	15	TYR260	0.000	
121	   O	-12.887	18.367	2.251	O.2	15	TYR260	0.000	
122	  CB	-10.210	19.654	3.577	C.3	15	TYR260	0.000	
123	  CG	-9.291	20.004	4.722	C.2	15	TYR260	0.000	
124	 CD1	-9.194	21.308	5.175	C.2	15	TYR260	0.000	
125	 CD2	-8.519	19.031	5.345	C.2	15	TYR260	0.000	
126	 CE1	-8.356	21.644	6.215	C.2	15	TYR260	0.000	
127	 CE2	-7.675	19.356	6.387	C.2	15	TYR260	0.000	
128	  CZ	-7.599	20.665	6.819	C.2	15	TYR260	0.000	
129	  OH	-6.765	20.994	7.860	O.3	15	TYR260	0.000	
130	   N	-12.766	20.604	2.049	N.am	16	CYS261	0.000	
131	  CA	-13.474	20.619	0.777	C.3	16	CYS261	0.000	
132	   C	-12.446	20.476	-0.330	C.2	16	CYS261	0.000	
133	   O	-11.756	21.429	-0.680	O.2	16	CYS261	0.000	
134	  CB	-14.284	21.900	0.617	C.3	16	CYS261	0.000	
135	  SG	-15.629	22.050	1.816	S.3	16	CYS261	0.000	
136	   N	-12.348	19.261	-0.851	N.am	17	ILE262	0.000	
137	  CA	-11.346	18.894	-1.840	C.3	17	ILE262	0.000	
138	   C	-11.950	18.877	-3.238	C.2	17	ILE262	0.000	
139	   O	-13.023	18.300	-3.454	O.2	17	ILE262	0.000	
140	  CB	-10.753	17.507	-1.504	C.3	17	ILE262	0.000	
141	 CG1	-10.085	17.540	-0.123	C.3	17	ILE262	0.000	
142	 CG2	-9.750	17.041	-2.571	C.3	17	ILE262	0.000	
143	 CD1	-9.506	16.211	0.314	C.3	17	ILE262	0.000	
144	   N	-11.280	19.517	-4.186	N.am	18	PHE263	0.000	
145	  CA	-11.718	19.486	-5.575	C.3	18	PHE263	0.000	
146	   C	-11.592	18.079	-6.155	C.2	18	PHE263	0.000	
147	   O	-10.650	17.357	-5.848	O.2	18	PHE263	0.000	
148	  CB	-10.896	20.449	-6.434	C.3	18	PHE263	0.000	
149	  CG	-11.107	21.912	-6.127	C.2	18	PHE263	0.000	
150	 CD1	-10.450	22.518	-5.060	C.2	18	PHE263	0.000	
151	 CD2	-11.903	22.699	-6.952	C.2	18	PHE263	0.000	
152	 CE1	-10.616	23.882	-4.805	C.2	18	PHE263	0.000	
153	 CE2	-12.076	24.056	-6.711	C.2	18	PHE263	0.000	
154	  CZ	-11.438	24.652	-5.637	C.2	18	PHE263	0.000	
155	   N	-5.538	19.480	-1.526	N.am	19	ILE305	0.000	
156	  CA	-6.836	20.159	-1.507	C.3	19	ILE305	0.000	
157	   C	-7.410	20.334	-2.907	C.2	19	ILE305	0.000	
158	   O	-8.628	20.421	-3.075	O.2	19	ILE305	0.000	
159	  CB	-6.724	21.546	-0.821	C.3	19	ILE305	0.000	
160	 CG1	-8.109	22.068	-0.377	C.3	19	ILE305	0.000	
161	 CG2	-5.960	22.544	-1.711	C.3	19	ILE305	0.000	
162	 CD1	-8.703	21.243	0.764	C.3	19	ILE305	0.000	
163	   N	-1.933	21.906	1.177	N.am	20	LEU321	0.000	
164	  CA	-2.181	22.900	2.212	C.3	20	LEU321	0.000	
165	   C	-0.888	23.384	2.875	C.2	20	LEU321	0.000	
166	   O	0.195	23.196	2.325	O.2	20	LEU321	0.000	
167	  CB	-3.156	22.337	3.256	C.3	20	LEU321	0.000	
168	  CG	-4.560	22.101	2.689	C.3	20	LEU321	0.000	
169	 CD1	-5.502	21.576	3.777	C.3	20	LEU321	0.000	
170	 CD2	-5.140	23.380	2.062	C.3	20	LEU321	0.000	
@<TRIPOS>BOND
1 1 2 1
2 2 3 1
3 2 5 1
4 3 4 2
5 5 6 1
6 7 8 1
7 8 9 1
8 8 11 1
9 9 10 2
10 9 15 1
11 11 12 1
12 11 13 1
13 12 14 1
14 15 16 1
15 16 17 1
16 16 19 1
17 17 18 2
18 17 21 1
19 19 20 1
20 21 22 1
21 22 23 1
22 22 25 1
23 23 24 2
24 25 26 1
25 26 27 2
26 26 28 1
27 29 30 1
28 30 31 1
29 30 33 1
30 31 32 2
31 33 34 1
32 34 35 2
33 34 36 1
34 35 37 1
35 36 38 2
36 37 39 2
37 38 39 1
38 39 40 1
39 41 42 1
40 42 43 1
41 42 45 1
42 43 44 2
43 43 52 1
44 45 46 1
45 46 47 2
46 46 48 1
47 47 49 1
48 48 50 2
49 49 51 2
50 50 51 1
51 52 53 1
52 53 54 1
53 53 56 1
54 54 55 2
55 56 57 1
56 58 59 1
57 59 60 1
58 59 62 1
59 60 61 2
60 62 63 1
61 63 64 2
62 63 65 1
63 64 66 1
64 65 67 2
65 66 68 2
66 67 68 1
67 69 70 1
68 70 71 1
69 70 73 1
70 71 72 2
71 71 75 1
72 73 74 1
73 75 76 1
74 76 77 1
75 76 79 1
76 77 78 2
77 80 81 1
78 81 82 1
79 81 84 1
80 82 83 2
81 84 85 1
82 85 86 2
83 85 87 1
84 86 88 1
85 87 89 2
86 88 90 2
87 89 90 1
88 90 91 1
89 92 93 1
90 93 94 1
91 93 96 1
92 94 95 2
93 94 98 1
94 96 97 1
95 98 99 1
96 99 100 1
97 99 102 1
98 100 101 2
99 102 103 1
100 103 104 2
101 103 105 1
102 104 106 1
103 105 107 2
104 106 108 2
105 107 108 1
106 109 110 1
107 110 111 1
108 110 113 1
109 111 112 2
110 111 118 1
111 113 114 1
112 114 115 1
113 115 116 1
114 116 117 1
115 118 119 1
116 119 120 1
117 119 122 1
118 120 121 2
119 120 130 1
120 122 123 1
121 123 124 2
122 123 125 1
123 124 126 1
124 125 127 2
125 126 128 2
126 127 128 1
127 128 129 1
128 130 131 1
129 131 132 1
130 131 134 1
131 132 133 2
132 132 136 1
133 134 135 1
134 136 137 1
135 137 138 1
136 137 140 1
137 138 139 2
138 138 144 1
139 140 141 1
140 140 142 1
141 141 143 1
142 144 145 1
143 145 146 1
144 145 148 1
145 146 147 2
146 148 149 1
147 149 150 2
148 149 151 1
149 150 152 1
150 151 153 2
151 152 154 2
152 153 154 1
153 155 156 1
154 156 157 1
155 156 159 1
156 157 158 2
157 159 160 1
158 159 161 1
159 160 162 1
160 163 164 1
161 164 165 1
162 164 167 1
163 165 166 2
164 167 168 1
165 168 169 1
166 168 170 1
@<TRIPOS>SUBSTRUCTURE
1	SER49	1	RESIDUE	1 B	SER
2	ILE90	7	RESIDUE	1 B	ILE
3	SER91	15	RESIDUE	1 B	SER
4	ASP92	21	RESIDUE	1 B	ASP
5	TYR131	29	RESIDUE	1 B	TYR
6	PHE133	41	RESIDUE	1 B	PHE
7	CYS134	52	RESIDUE	1 B	CYS
8	PHE149	58	RESIDUE	1 B	PHE
9	SER175	69	RESIDUE	1 B	SER
10	ALA176	75	RESIDUE	1 B	ALA
11	TYR191	80	RESIDUE	1 B	TYR
12	SER218	92	RESIDUE	1 B	SER
13	PHE219	98	RESIDUE	1 B	PHE
14	LYS259	109	RESIDUE	1 B	LYS
15	TYR260	118	RESIDUE	1 B	TYR
16	CYS261	130	RESIDUE	1 B	CYS
17	ILE262	136	RESIDUE	1 B	ILE
18	PHE263	144	RESIDUE	1 B	PHE
19	ILE305	155	RESIDUE	1 B	ILE
20	LEU321	163	RESIDUE	1 B	LEU
