# created with PyMOL 2.5.2
@<TRIPOS>MOLECULE
WDR5_6DAK2_TargetProtein
178 173 21              
SMALL
USER_CHARGES
@<TRIPOS>ATOM
1	   N	-4.893	26.921	-2.478	N.am	1	SER49	0.000	
2	  CA	-6.318	26.657	-2.348	C.3	1	SER49	0.000	
3	   C	-6.924	25.994	-3.583	C.2	1	SER49	0.000	
4	   O	-7.732	25.073	-3.461	O.2	1	SER49	0.000	
5	  CB	-7.061	27.956	-2.044	C.3	1	SER49	0.000	
6	  OG	-6.835	28.923	-3.046	O.3	1	SER49	0.000	
7	   N	-7.348	33.779	-0.707	N.am	2	ILE90	0.000	
8	  CA	-8.202	33.395	-1.837	C.3	2	ILE90	0.000	
9	   C	-8.525	31.910	-1.738	C.2	2	ILE90	0.000	
10	   O	-7.639	31.097	-1.494	O.2	2	ILE90	0.000	
11	  CB	-7.511	33.695	-3.179	C.3	2	ILE90	0.000	
12	 CG1	-7.187	35.184	-3.278	C.3	2	ILE90	0.000	
13	 CG2	-8.374	33.255	-4.357	C.3	2	ILE90	0.000	
14	 CD1	-6.238	35.494	-4.405	C.3	2	ILE90	0.000	
15	   N	-9.795	31.555	-1.931	N.am	3	SER91	0.000	
16	  CA	-10.211	30.161	-1.824	C.3	3	SER91	0.000	
17	   C	-10.423	29.481	-3.171	C.2	3	SER91	0.000	
18	   O	-10.386	28.267	-3.243	O.2	3	SER91	0.000	
19	  CB	-11.512	30.046	-1.019	C.3	3	SER91	0.000	
20	  OG	-11.290	30.357	0.347	O.3	3	SER91	0.000	
21	   N	-10.651	30.254	-4.228	N.am	4	ASP92	0.000	
22	  CA	-10.925	29.659	-5.533	C.3	4	ASP92	0.000	
23	   C	-10.580	30.626	-6.655	C.2	4	ASP92	0.000	
24	   O	-10.535	31.842	-6.455	O.2	4	ASP92	0.000	
25	  CB	-12.412	29.247	-5.629	C.3	4	ASP92	0.000	
26	  CG	-12.663	28.143	-6.646	C.2	4	ASP92	0.000	
27	 OD1	-11.703	27.603	-7.223	O.co2	4	ASP92	0.000	
28	 OD2	-13.851	27.774	-6.845	O.co2	4	ASP92	0.000	
29	   N	-11.669	35.470	1.071	N.am	5	ASP107	0.000	
30	  CA	-12.145	35.663	2.437	C.3	5	ASP107	0.000	
31	   C	-12.516	37.116	2.699	C.2	5	ASP107	0.000	
32	   O	-13.164	37.412	3.702	O.2	5	ASP107	0.000	
33	  CB	-11.090	35.235	3.475	C.3	5	ASP107	0.000	
34	  CG	-10.893	33.726	3.542	C.2	5	ASP107	0.000	
35	 OD1	-11.750	32.978	3.043	O.co2	5	ASP107	0.000	
36	 OD2	-9.872	33.283	4.109	O.co2	5	ASP107	0.000	
37	   N	-17.198	35.085	3.804	N.am	6	TYR131	0.000	
38	  CA	-16.187	34.557	2.878	C.3	6	TYR131	0.000	
39	   C	-16.788	34.011	1.586	C.2	6	TYR131	0.000	
40	   O	-17.799	33.305	1.625	O.2	6	TYR131	0.000	
41	  CB	-15.384	33.422	3.524	C.3	6	TYR131	0.000	
42	  CG	-14.906	33.657	4.932	C.2	6	TYR131	0.000	
43	 CD1	-14.279	34.843	5.295	C.2	6	TYR131	0.000	
44	 CD2	-15.071	32.677	5.900	C.2	6	TYR131	0.000	
45	 CE1	-13.830	35.045	6.591	C.2	6	TYR131	0.000	
46	 CE2	-14.629	32.870	7.197	C.2	6	TYR131	0.000	
47	  CZ	-14.012	34.054	7.537	C.2	6	TYR131	0.000	
48	  OH	-13.580	34.237	8.831	O.3	6	TYR131	0.000	
49	   N	-16.241	31.326	-1.201	N.am	7	PHE133	0.000	
50	  CA	-15.497	30.056	-1.177	C.3	7	PHE133	0.000	
51	   C	-15.280	29.406	-2.541	C.2	7	PHE133	0.000	
52	   O	-14.322	28.650	-2.732	O.2	7	PHE133	0.000	
53	  CB	-16.237	29.077	-0.270	C.3	7	PHE133	0.000	
54	  CG	-15.432	27.871	0.150	C.2	7	PHE133	0.000	
55	 CD1	-14.351	28.004	1.014	C.2	7	PHE133	0.000	
56	 CD2	-15.808	26.594	-0.256	C.2	7	PHE133	0.000	
57	 CE1	-13.640	26.880	1.433	C.2	7	PHE133	0.000	
58	 CE2	-15.107	25.474	0.161	C.2	7	PHE133	0.000	
59	  CZ	-14.026	25.615	1.009	C.2	7	PHE133	0.000	
60	   N	-16.160	29.691	-3.491	N.am	8	CYS134	0.000	
61	  CA	-16.140	28.997	-4.771	C.3	8	CYS134	0.000	
62	   C	-16.633	29.910	-5.891	C.2	8	CYS134	0.000	
63	   O	-17.493	30.775	-5.664	O.2	8	CYS134	0.000	
64	  CB	-17.011	27.727	-4.687	C.3	8	CYS134	0.000	
65	  SG	-18.681	27.943	-3.953	S.3	8	CYS134	0.000	
66	   N	-19.909	31.461	2.503	N.am	9	PHE149	0.000	
67	  CA	-20.237	31.056	3.861	C.3	9	PHE149	0.000	
68	   C	-21.541	31.690	4.312	C.2	9	PHE149	0.000	
69	   O	-22.119	31.255	5.301	O.2	9	PHE149	0.000	
70	  CB	-19.119	31.439	4.839	C.3	9	PHE149	0.000	
71	  CG	-17.992	30.445	4.904	C.2	9	PHE149	0.000	
72	 CD1	-17.022	30.409	3.912	C.2	9	PHE149	0.000	
73	 CD2	-17.885	29.566	5.972	C.2	9	PHE149	0.000	
74	 CE1	-15.969	29.505	3.976	C.3	9	PHE149	0.000	
75	 CE2	-16.838	28.652	6.042	C.2	9	PHE149	0.000	
76	  CZ	-15.878	28.625	5.043	C.3	9	PHE149	0.000	
77	   N	-20.232	25.016	-0.515	N.am	10	SER175	0.000	
78	  CA	-18.881	24.498	-0.752	C.3	10	SER175	0.000	
79	   C	-18.457	24.519	-2.215	C.2	10	SER175	0.000	
80	   O	-17.258	24.523	-2.501	O.2	10	SER175	0.000	
81	  CB	-18.765	23.070	-0.224	C.3	10	SER175	0.000	
82	  OG	-19.826	22.268	-0.718	O.3	10	SER175	0.000	
83	   N	-19.409	24.510	-3.145	N.am	11	ALA176	0.000	
84	  CA	-19.064	24.519	-4.565	C.3	11	ALA176	0.000	
85	   C	-20.203	25.012	-5.442	C.2	11	ALA176	0.000	
86	   O	-21.380	24.872	-5.081	O.2	11	ALA176	0.000	
87	  CB	-18.626	23.127	-5.022	C.3	11	ALA176	0.000	
88	   N	-22.624	22.164	3.175	N.am	12	TYR191	0.000	
89	  CA	-22.527	21.422	4.413	C.3	12	TYR191	0.000	
90	   C	-23.903	21.019	4.964	C.2	12	TYR191	0.000	
91	   O	-23.992	20.213	5.891	O.2	12	TYR191	0.000	
92	  CB	-21.767	22.257	5.442	C.3	12	TYR191	0.000	
93	  CG	-20.269	22.099	5.354	C.2	12	TYR191	0.000	
94	 CD1	-19.563	22.561	4.257	C.2	12	TYR191	0.000	
95	 CD2	-19.572	21.472	6.371	C.2	12	TYR191	0.000	
96	 CE1	-18.177	22.404	4.179	C.2	12	TYR191	0.000	
97	 CE2	-18.191	21.316	6.307	C.2	12	TYR191	0.000	
98	  CZ	-17.510	21.772	5.209	C.2	12	TYR191	0.000	
99	  OH	-16.139	21.603	5.166	O.3	12	TYR191	0.000	
100	   N	-19.073	18.455	0.185	N.am	13	SER218	0.000	
101	  CA	-17.905	19.323	0.193	C.3	13	SER218	0.000	
102	   C	-17.448	19.742	-1.192	C.2	13	SER218	0.000	
103	   O	-16.573	20.591	-1.324	O.2	13	SER218	0.000	
104	  CB	-16.756	18.621	0.910	C.3	13	SER218	0.000	
105	  OG	-16.593	17.309	0.402	O.3	13	SER218	0.000	
106	   N	-18.012	19.131	-2.224	N.am	14	PHE219	0.000	
107	  CA	-17.700	19.502	-3.599	C.3	14	PHE219	0.000	
108	   C	-18.726	18.915	-4.557	C.2	14	PHE219	0.000	
109	   O	-19.248	17.831	-4.310	O.2	14	PHE219	0.000	
110	  CB	-16.302	19.016	-4.002	C.3	14	PHE219	0.000	
111	  CG	-15.918	19.407	-5.399	C.2	14	PHE219	0.000	
112	 CD1	-15.497	20.701	-5.671	C.2	14	PHE219	0.000	
113	 CD2	-16.018	18.500	-6.448	C.2	14	PHE219	0.000	
114	 CE1	-15.167	21.085	-6.969	C.2	14	PHE219	0.000	
115	 CE2	-15.696	18.872	-7.741	C.2	14	PHE219	0.000	
116	  CZ	-15.262	20.164	-7.999	C.2	14	PHE219	0.000	
117	   N	-12.722	16.281	6.507	N.am	15	LYS259	0.000	
118	  CA	-12.580	17.615	7.080	C.3	15	LYS259	0.000	
119	   C	-12.555	18.750	6.056	C.2	15	LYS259	0.000	
120	   O	-13.093	19.829	6.311	O.2	15	LYS259	0.000	
121	  CB	-11.305	17.692	7.931	C.3	15	LYS259	0.000	
122	  CG	-11.204	18.993	8.717	C.3	15	LYS259	0.000	
123	  CD	-9.815	19.239	9.282	C.3	15	LYS259	0.000	
124	  CE	-9.743	20.625	9.915	C.3	15	LYS259	0.000	
125	  NZ	-8.340	21.077	10.136	N.4	15	LYS259	0.000	
126	   N	-11.920	18.519	4.912	N.am	16	TYR260	0.000	
127	  CA	-11.697	19.591	3.951	C.3	16	TYR260	0.000	
128	   C	-12.507	19.463	2.673	C.2	16	TYR260	0.000	
129	   O	-12.887	18.367	2.251	O.2	16	TYR260	0.000	
130	  CB	-10.210	19.654	3.577	C.3	16	TYR260	0.000	
131	  CG	-9.291	20.004	4.722	C.2	16	TYR260	0.000	
132	 CD1	-9.194	21.308	5.175	C.2	16	TYR260	0.000	
133	 CD2	-8.519	19.031	5.345	C.2	16	TYR260	0.000	
134	 CE1	-8.356	21.644	6.215	C.2	16	TYR260	0.000	
135	 CE2	-7.675	19.356	6.387	C.2	16	TYR260	0.000	
136	  CZ	-7.599	20.665	6.819	C.2	16	TYR260	0.000	
137	  OH	-6.765	20.994	7.860	O.3	16	TYR260	0.000	
138	   N	-12.766	20.604	2.049	N.am	17	CYS261	0.000	
139	  CA	-13.474	20.619	0.777	C.3	17	CYS261	0.000	
140	   C	-12.446	20.476	-0.330	C.2	17	CYS261	0.000	
141	   O	-11.756	21.429	-0.680	O.2	17	CYS261	0.000	
142	  CB	-14.284	21.900	0.617	C.3	17	CYS261	0.000	
143	  SG	-15.629	22.050	1.816	S.3	17	CYS261	0.000	
144	   N	-12.348	19.261	-0.851	N.am	18	ILE262	0.000	
145	  CA	-11.346	18.894	-1.840	C.3	18	ILE262	0.000	
146	   C	-11.950	18.877	-3.238	C.2	18	ILE262	0.000	
147	   O	-13.023	18.300	-3.454	O.2	18	ILE262	0.000	
148	  CB	-10.753	17.507	-1.504	C.3	18	ILE262	0.000	
149	 CG1	-10.085	17.540	-0.123	C.3	18	ILE262	0.000	
150	 CG2	-9.750	17.041	-2.571	C.3	18	ILE262	0.000	
151	 CD1	-9.506	16.211	0.314	C.3	18	ILE262	0.000	
152	   N	-11.280	19.517	-4.186	N.am	19	PHE263	0.000	
153	  CA	-11.718	19.486	-5.575	C.3	19	PHE263	0.000	
154	   C	-11.592	18.079	-6.155	C.2	19	PHE263	0.000	
155	   O	-10.650	17.357	-5.848	O.2	19	PHE263	0.000	
156	  CB	-10.896	20.449	-6.434	C.3	19	PHE263	0.000	
157	  CG	-11.107	21.912	-6.127	C.2	19	PHE263	0.000	
158	 CD1	-10.450	22.518	-5.060	C.2	19	PHE263	0.000	
159	 CD2	-11.903	22.699	-6.952	C.2	19	PHE263	0.000	
160	 CE1	-10.616	23.882	-4.805	C.2	19	PHE263	0.000	
161	 CE2	-12.076	24.056	-6.711	C.2	19	PHE263	0.000	
162	  CZ	-11.438	24.652	-5.637	C.2	19	PHE263	0.000	
163	   N	-5.538	19.480	-1.526	N.am	20	ILE305	0.000	
164	  CA	-6.836	20.159	-1.507	C.3	20	ILE305	0.000	
165	   C	-7.410	20.334	-2.907	C.2	20	ILE305	0.000	
166	   O	-8.628	20.421	-3.075	O.2	20	ILE305	0.000	
167	  CB	-6.724	21.546	-0.821	C.3	20	ILE305	0.000	
168	 CG1	-8.109	22.068	-0.377	C.3	20	ILE305	0.000	
169	 CG2	-5.960	22.544	-1.711	C.3	20	ILE305	0.000	
170	 CD1	-8.703	21.243	0.764	C.3	20	ILE305	0.000	
171	   N	-1.933	21.906	1.177	N.am	21	LEU321	0.000	
172	  CA	-2.181	22.900	2.212	C.3	21	LEU321	0.000	
173	   C	-0.888	23.384	2.875	C.2	21	LEU321	0.000	
174	   O	0.195	23.196	2.325	O.2	21	LEU321	0.000	
175	  CB	-3.156	22.337	3.256	C.3	21	LEU321	0.000	
176	  CG	-4.560	22.101	2.689	C.3	21	LEU321	0.000	
177	 CD1	-5.502	21.576	3.777	C.3	21	LEU321	0.000	
178	 CD2	-5.140	23.380	2.062	C.3	21	LEU321	0.000	
@<TRIPOS>BOND
1 1 2 1
2 2 3 1
3 2 5 1
4 3 4 2
5 5 6 1
6 7 8 1
7 8 9 1
8 8 11 1
9 9 10 2
10 9 15 1
11 11 12 1
12 11 13 1
13 12 14 1
14 15 16 1
15 16 17 1
16 16 19 1
17 17 18 2
18 17 21 1
19 19 20 1
20 21 22 1
21 22 23 1
22 22 25 1
23 23 24 2
24 25 26 1
25 26 27 2
26 26 28 1
27 29 30 1
28 30 31 1
29 30 33 1
30 31 32 2
31 33 34 1
32 34 35 2
33 34 36 1
34 37 38 1
35 38 39 1
36 38 41 1
37 39 40 2
38 41 42 1
39 42 43 2
40 42 44 1
41 43 45 1
42 44 46 2
43 45 47 2
44 46 47 1
45 47 48 1
46 49 50 1
47 50 51 1
48 50 53 1
49 51 52 2
50 51 60 1
51 53 54 1
52 54 55 2
53 54 56 1
54 55 57 1
55 56 58 2
56 57 59 2
57 58 59 1
58 60 61 1
59 61 62 1
60 61 64 1
61 62 63 2
62 64 65 1
63 66 67 1
64 67 68 1
65 67 70 1
66 68 69 2
67 70 71 1
68 71 72 2
69 71 73 1
70 72 74 1
71 73 75 2
72 74 76 2
73 75 76 1
74 77 78 1
75 78 79 1
76 78 81 1
77 79 80 2
78 79 83 1
79 81 82 1
80 83 84 1
81 84 85 1
82 84 87 1
83 85 86 2
84 88 89 1
85 89 90 1
86 89 92 1
87 90 91 2
88 92 93 1
89 93 94 2
90 93 95 1
91 94 96 1
92 95 97 2
93 96 98 2
94 97 98 1
95 98 99 1
96 100 101 1
97 101 102 1
98 101 104 1
99 102 103 2
100 102 106 1
101 104 105 1
102 106 107 1
103 107 108 1
104 107 110 1
105 108 109 2
106 110 111 1
107 111 112 2
108 111 113 1
109 112 114 1
110 113 115 2
111 114 116 2
112 115 116 1
113 117 118 1
114 118 119 1
115 118 121 1
116 119 120 2
117 119 126 1
118 121 122 1
119 122 123 1
120 123 124 1
121 124 125 1
122 126 127 1
123 127 128 1
124 127 130 1
125 128 129 2
126 128 138 1
127 130 131 1
128 131 132 2
129 131 133 1
130 132 134 1
131 133 135 2
132 134 136 2
133 135 136 1
134 136 137 1
135 138 139 1
136 139 140 1
137 139 142 1
138 140 141 2
139 140 144 1
140 142 143 1
141 144 145 1
142 145 146 1
143 145 148 1
144 146 147 2
145 146 152 1
146 148 149 1
147 148 150 1
148 149 151 1
149 152 153 1
150 153 154 1
151 153 156 1
152 154 155 2
153 156 157 1
154 157 158 2
155 157 159 1
156 158 160 1
157 159 161 2
158 160 162 2
159 161 162 1
160 163 164 1
161 164 165 1
162 164 167 1
163 165 166 2
164 167 168 1
165 167 169 1
166 168 170 1
167 171 172 1
168 172 173 1
169 172 175 1
170 173 174 2
171 175 176 1
172 176 177 1
173 176 178 1
@<TRIPOS>SUBSTRUCTURE
1	SER49	1	RESIDUE	1 B	SER
2	ILE90	7	RESIDUE	1 B	ILE
3	SER91	15	RESIDUE	1 B	SER
4	ASP92	21	RESIDUE	1 B	ASP
5	ASP107	29	RESIDUE	1 B	ASP
6	TYR131	37	RESIDUE	1 B	TYR
7	PHE133	49	RESIDUE	1 B	PHE
8	CYS134	60	RESIDUE	1 B	CYS
9	PHE149	66	RESIDUE	1 B	PHE
10	SER175	77	RESIDUE	1 B	SER
11	ALA176	83	RESIDUE	1 B	ALA
12	TYR191	88	RESIDUE	1 B	TYR
13	SER218	100	RESIDUE	1 B	SER
14	PHE219	106	RESIDUE	1 B	PHE
15	LYS259	117	RESIDUE	1 B	LYS
16	TYR260	126	RESIDUE	1 B	TYR
17	CYS261	138	RESIDUE	1 B	CYS
18	ILE262	144	RESIDUE	1 B	ILE
19	PHE263	152	RESIDUE	1 B	PHE
20	ILE305	163	RESIDUE	1 B	ILE
21	LEU321	171	RESIDUE	1 B	LEU
