# created with PyMOL 2.5.2
@<TRIPOS>MOLECULE
HDAC2_4LY1_TargetProtein
186 179 23              
SMALL
USER_CHARGES
@<TRIPOS>ATOM
1	   N	21.945	-14.740	13.069	N.am	1	TYR29	0.000	
2	  CA	23.169	-15.252	12.458	C.3	1	TYR29	0.000	
3	   C	24.402	-14.421	12.851	C.2	1	TYR29	0.000	
4	   O	25.526	-14.874	12.625	O.2	1	TYR29	0.000	
5	  CB	23.037	-15.264	10.919	C.3	1	TYR29	0.000	
6	  CG	22.439	-16.532	10.342	C.2	1	TYR29	0.000	
7	 CD1	23.163	-17.324	9.452	C.2	1	TYR29	0.000	
8	 CD2	21.127	-16.915	10.643	C.2	1	TYR29	0.000	
9	 CE1	22.609	-18.465	8.884	C.2	1	TYR29	0.000	
10	 CE2	20.572	-18.080	10.103	C.2	1	TYR29	0.000	
11	  CZ	21.302	-18.821	9.181	C.2	1	TYR29	0.000	
12	  OH	20.769	-19.961	8.623	O.3	1	TYR29	0.000	
13	   N	21.429	-13.150	6.332	N.am	2	MET35	0.000	
14	  CA	20.276	-14.022	6.619	C.3	2	MET35	0.000	
15	   C	19.651	-13.554	7.910	C.2	2	MET35	0.000	
16	   O	20.293	-13.602	8.975	O.2	2	MET35	0.000	
17	  CB	20.683	-15.485	6.683	C.3	2	MET35	0.000	
18	  CG	19.572	-16.432	7.139	C.3	2	MET35	0.000	
19	  SD	18.023	-16.177	6.232	S.3	2	MET35	0.000	
20	  CE	18.461	-16.895	4.575	C.3	2	MET35	0.000	
21	   N	12.719	-12.165	9.148	N.am	3	ARG39	0.000	
22	  CA	11.872	-12.058	7.953	C.3	3	ARG39	0.000	
23	   C	10.684	-13.068	7.978	C.2	3	ARG39	0.000	
24	   O	9.663	-12.803	7.337	O.2	3	ARG39	0.000	
25	  CB	12.687	-12.240	6.647	C.3	3	ARG39	0.000	
26	  CG	13.163	-13.670	6.405	C.3	3	ARG39	0.000	
27	  CD	14.447	-13.808	5.560	C.3	3	ARG39	0.000	
28	  NE	14.715	-15.235	5.554	N.pl3	3	ARG39	0.000	
29	  CZ	14.704	-16.027	4.482	C.cat	3	ARG39	0.000	
30	 NH1	14.759	-15.506	3.260	N.pl3	3	ARG39	0.000	
31	 NH2	14.720	-17.343	4.629	N.pl3	3	ARG39	0.000	
32	   N	30.384	-18.307	6.493	N.am	4	ASP104	0.000	
33	  CA	29.087	-18.082	5.829	C.3	4	ASP104	0.000	
34	   C	27.970	-18.772	6.633	C.2	4	ASP104	0.000	
35	   O	26.807	-18.365	6.577	O.2	4	ASP104	0.000	
36	  CB	29.113	-18.775	4.442	C.3	4	ASP104	0.000	
37	  CG	29.364	-17.927	3.214	C.2	4	ASP104	0.000	
38	 OD1	29.870	-16.793	3.364	O.co2	4	ASP104	0.000	
39	 OD2	29.090	-18.418	2.091	O.co2	4	ASP104	0.000	
40	   N	17.193	-23.895	15.678	N.am	5	PHE114	0.000	
41	  CA	16.794	-23.272	14.416	C.3	5	PHE114	0.000	
42	   C	16.679	-24.355	13.329	C.2	5	PHE114	0.000	
43	   O	15.697	-24.376	12.583	O.2	5	PHE114	0.000	
44	  CB	17.835	-22.206	14.003	C.3	5	PHE114	0.000	
45	  CG	17.578	-21.616	12.636	C.2	5	PHE114	0.000	
46	 CD1	18.335	-22.010	11.537	C.2	5	PHE114	0.000	
47	 CD2	16.586	-20.666	12.448	C.2	5	PHE114	0.000	
48	 CE1	18.085	-21.466	10.269	C.2	5	PHE114	0.000	
49	 CE2	16.321	-20.145	11.177	C.2	5	PHE114	0.000	
50	  CZ	17.065	-20.558	10.095	C.2	5	PHE114	0.000	
51	   N	9.760	-21.168	6.698	N.am	6	ALA141	0.000	
52	  CA	11.045	-21.265	7.393	C.3	6	ALA141	0.000	
53	   C	11.952	-22.336	6.759	C.2	6	ALA141	0.000	
54	   O	13.070	-22.509	7.230	O.2	6	ALA141	0.000	
55	  CB	10.819	-21.608	8.857	C.3	6	ALA141	0.000	
56	   N	11.445	-23.084	5.780	N.am	7	GLY142	0.000	
57	  CA	12.201	-24.148	5.131	C.3	7	GLY142	0.000	
58	   C	12.812	-23.692	3.816	C.2	7	GLY142	0.000	
59	   O	12.898	-22.482	3.541	O.2	7	GLY142	0.000	
60	   N	13.206	-24.675	3.009	N.am	8	GLY143	0.000	
61	  CA	13.791	-24.417	1.693	C.3	8	GLY143	0.000	
62	   C	15.304	-24.236	1.706	C.2	8	GLY143	0.000	
63	   O	15.844	-23.527	0.841	O.2	8	GLY143	0.000	
64	   N	16.013	-24.900	2.643	N.am	9	LEU144	0.000	
65	  CA	17.457	-24.709	2.804	C.3	9	LEU144	0.000	
66	   C	18.203	-25.647	1.844	C.2	9	LEU144	0.000	
67	   O	18.818	-26.625	2.239	O.2	9	LEU144	0.000	
68	  CB	17.819	-24.949	4.293	C.3	9	LEU144	0.000	
69	  CG	17.459	-23.780	5.214	C.3	9	LEU144	0.000	
70	 CD1	15.936	-23.711	5.491	C.3	9	LEU144	0.000	
71	 CD2	18.192	-23.938	6.572	C.3	9	LEU144	0.000	
72	   N	18.154	-25.287	0.565	N.am	10	HIS145	0.000	
73	  CA	18.591	-26.180	-0.507	C.3	10	HIS145	0.000	
74	   C	20.074	-26.447	-0.657	C.2	10	HIS145	0.000	
75	   O	20.413	-27.412	-1.343	O.2	10	HIS145	0.000	
76	  CB	17.973	-25.768	-1.848	C.3	10	HIS145	0.000	
77	  CG	18.341	-24.399	-2.345	C.2	10	HIS145	0.000	
78	 CD2	19.144	-23.439	-1.807	C.2	10	HIS145	0.000	
79	 ND1	17.853	-23.943	-3.564	N.pl3	10	HIS145	0.000	
80	 CE1	18.361	-22.730	-3.730	C.2	10	HIS145	0.000	
81	 NE2	19.154	-22.383	-2.712	N.pl3	10	HIS145	0.000	
82	   N	20.929	-25.665	0.006	N.am	11	HIS146	0.000	
83	  CA	22.387	-25.858	-0.153	C.3	11	HIS146	0.000	
84	   C	22.989	-26.881	0.805	C.2	11	HIS146	0.000	
85	   O	24.107	-27.351	0.571	O.2	11	HIS146	0.000	
86	  CB	23.123	-24.533	0.035	C.3	11	HIS146	0.000	
87	  CG	22.755	-23.460	-0.941	C.2	11	HIS146	0.000	
88	 CD2	22.474	-22.149	-0.717	C.2	11	HIS146	0.000	
89	 ND1	22.773	-23.688	-2.307	N.pl3	11	HIS146	0.000	
90	 CE1	22.447	-22.524	-2.869	C.2	11	HIS146	0.000	
91	 NE2	22.252	-21.574	-1.950	N.pl3	11	HIS146	0.000	
92	   N	26.227	-22.192	2.154	N.am	12	GLY154	0.000	
93	  CA	25.369	-21.068	1.775	C.3	12	GLY154	0.000	
94	   C	24.287	-20.683	2.776	C.2	12	GLY154	0.000	
95	   O	23.142	-20.437	2.394	O.2	12	GLY154	0.000	
96	   N	24.671	-20.632	4.070	N.am	13	PHE155	0.000	
97	  CA	23.815	-20.261	5.219	C.3	13	PHE155	0.000	
98	   C	22.909	-21.399	5.691	C.2	13	PHE155	0.000	
99	   O	22.164	-21.207	6.649	O.2	13	PHE155	0.000	
100	  CB	22.950	-18.991	4.942	C.3	13	PHE155	0.000	
101	  CG	23.566	-17.847	4.135	C.2	13	PHE155	0.000	
102	 CD1	24.944	-17.615	4.147	C.2	13	PHE155	0.000	
103	 CD2	22.759	-16.960	3.438	C.2	13	PHE155	0.000	
104	 CE1	25.498	-16.545	3.415	C.2	13	PHE155	0.000	
105	 CE2	23.311	-15.907	2.697	C.2	13	PHE155	0.000	
106	  CZ	24.680	-15.692	2.708	C.2	13	PHE155	0.000	
107	   N	22.932	-22.544	5.002	N.am	14	CYS156	0.000	
108	  CA	22.087	-23.734	5.265	C.3	14	CYS156	0.000	
109	   C	22.852	-24.768	6.027	C.2	14	CYS156	0.000	
110	   O	23.986	-25.056	5.648	O.2	14	CYS156	0.000	
111	  CB	21.612	-24.344	3.960	C.3	14	CYS156	0.000	
112	  SG	20.710	-23.213	2.897	S.3	14	CYS156	0.000	
113	   N	14.455	-20.166	-6.301	N.am	15	ASP181	0.000	
114	  CA	15.452	-19.353	-5.612	C.3	15	ASP181	0.000	
115	   C	16.427	-18.854	-6.725	C.2	15	ASP181	0.000	
116	   O	16.592	-19.539	-7.740	O.2	15	ASP181	0.000	
117	  CB	16.226	-20.300	-4.669	C.3	15	ASP181	0.000	
118	  CG	17.099	-19.592	-3.671	C.2	15	ASP181	0.000	
119	 OD1	16.682	-19.484	-2.493	O.co2	15	ASP181	0.000	
120	 OD2	18.221	-19.223	-4.033	O.co2	15	ASP181	0.000	
121	   N	19.593	-18.976	-6.588	N.am	16	HIS183	0.000	
122	  CA	20.695	-19.918	-6.583	C.3	16	HIS183	0.000	
123	   C	20.319	-21.319	-6.999	C.2	16	HIS183	0.000	
124	   O	19.174	-21.768	-6.829	O.2	16	HIS183	0.000	
125	  CB	21.383	-19.977	-5.212	C.3	16	HIS183	0.000	
126	  CG	21.825	-18.623	-4.734	C.2	16	HIS183	0.000	
127	 CD2	22.903	-17.887	-5.115	C.2	16	HIS183	0.000	
128	 ND1	21.048	-17.886	-3.886	N.pl3	16	HIS183	0.000	
129	 CE1	21.679	-16.733	-3.719	C.2	16	HIS183	0.000	
130	 NE2	22.807	-16.681	-4.465	N.pl3	16	HIS183	0.000	
131	   N	27.425	-18.076	-6.886	N.am	17	PHE210	0.000	
132	  CA	27.228	-19.123	-5.915	C.3	17	PHE210	0.000	
133	   C	26.052	-20.044	-6.298	C.2	17	PHE210	0.000	
134	   O	25.014	-19.523	-6.743	O.2	17	PHE210	0.000	
135	  CB	26.928	-18.506	-4.521	C.3	17	PHE210	0.000	
136	  CG	26.931	-19.537	-3.408	C.2	17	PHE210	0.000	
137	 CD1	25.761	-20.206	-3.050	C.2	17	PHE210	0.000	
138	 CD2	28.114	-19.890	-2.764	C.2	17	PHE210	0.000	
139	 CE1	25.779	-21.212	-2.071	C.2	17	PHE210	0.000	
140	 CE2	28.117	-20.856	-1.740	C.2	17	PHE210	0.000	
141	  CZ	26.948	-21.506	-1.391	C.2	17	PHE210	0.000	
142	   N	10.274	-24.843	-4.013	N.am	18	GLN265	0.000	
143	  CA	11.119	-23.978	-3.186	C.3	18	GLN265	0.000	
144	   C	10.933	-22.573	-3.773	C.2	18	GLN265	0.000	
145	   O	11.162	-22.348	-4.972	O.2	18	GLN265	0.000	
146	  CB	12.574	-24.476	-3.203	C.3	18	GLN265	0.000	
147	  CG	13.492	-23.931	-2.107	C.3	18	GLN265	0.000	
148	  CD	14.169	-22.634	-2.507	C.2	18	GLN265	0.000	
149	 NE2	15.263	-22.311	-1.818	N.pl3	18	GLN265	0.000	
150	 OE1	13.725	-21.949	-3.440	O.2	18	GLN265	0.000	
151	   N	15.069	-14.546	-3.126	N.am	19	ASP269	0.000	
152	  CA	16.287	-13.812	-3.540	C.3	19	ASP269	0.000	
153	   C	16.323	-13.589	-5.057	C.2	19	ASP269	0.000	
154	   O	17.252	-12.953	-5.570	O.2	19	ASP269	0.000	
155	  CB	17.575	-14.421	-2.972	C.3	19	ASP269	0.000	
156	  CG	17.689	-15.932	-3.082	C.2	19	ASP269	0.000	
157	 OD1	16.892	-16.533	-3.853	O.co2	19	ASP269	0.000	
158	 OD2	18.623	-16.504	-2.467	O.co2	19	ASP269	0.000	
159	   N	21.326	-9.389	-2.144	N.am	20	LEU276	0.000	
160	  CA	22.373	-10.253	-2.670	C.3	20	LEU276	0.000	
161	   C	22.165	-10.595	-4.130	C.2	20	LEU276	0.000	
162	   O	23.142	-10.646	-4.878	O.2	20	LEU276	0.000	
163	  CB	22.536	-11.519	-1.838	C.3	20	LEU276	0.000	
164	  CG	22.945	-11.359	-0.361	C.3	20	LEU276	0.000	
165	 CD1	23.233	-12.687	0.246	C.3	20	LEU276	0.000	
166	 CD2	24.163	-10.409	-0.181	C.3	20	LEU276	0.000	
167	   N	13.108	-20.051	1.319	N.am	21	GLY305	0.000	
168	  CA	14.441	-20.146	0.721	C.3	21	GLY305	0.000	
169	   C	15.165	-18.839	1.005	C.2	21	GLY305	0.000	
170	   O	14.958	-18.227	2.060	O.2	21	GLY305	0.000	
171	   N	15.993	-18.393	0.060	N.am	22	GLY306	0.000	
172	  CA	16.747	-17.159	0.240	C.3	22	GLY306	0.000	
173	   C	15.850	-15.939	0.208	C.2	22	GLY306	0.000	
174	   O	14.635	-16.053	0.029	O.2	22	GLY306	0.000	
175	   N	16.845	-11.480	0.929	N.am	23	TYR308	0.000	
176	  CA	17.683	-10.598	1.725	C.3	23	TYR308	0.000	
177	   C	17.208	-9.171	1.859	C.2	23	TYR308	0.000	
178	   O	17.770	-8.457	2.686	O.2	23	TYR308	0.000	
179	  CB	19.179	-10.737	1.283	C.3	23	TYR308	0.000	
180	  CG	19.562	-12.201	1.307	C.2	23	TYR308	0.000	
181	 CD1	19.490	-12.983	0.147	C.2	23	TYR308	0.000	
182	 CD2	19.780	-12.854	2.511	C.2	23	TYR308	0.000	
183	 CE1	19.693	-14.369	0.194	C.2	23	TYR308	0.000	
184	 CE2	19.970	-14.228	2.573	C.2	23	TYR308	0.000	
185	  CZ	19.889	-14.992	1.419	C.2	23	TYR308	0.000	
186	  OH	20.042	-16.349	1.559	O.3	23	TYR308	0.000	
@<TRIPOS>BOND
1 1 2 1
2 2 3 1
3 2 5 1
4 3 4 2
5 5 6 1
6 6 7 2
7 6 8 1
8 7 9 1
9 8 10 2
10 9 11 2
11 10 11 1
12 11 12 1
13 13 14 1
14 14 15 1
15 14 17 1
16 15 16 2
17 17 18 1
18 18 19 1
19 19 20 1
20 21 22 1
21 22 23 1
22 22 25 1
23 23 24 2
24 25 26 1
25 26 27 1
26 27 28 1
27 28 29 1
28 29 30 2
29 29 31 1
30 32 33 1
31 33 34 1
32 33 36 1
33 34 35 2
34 36 37 1
35 37 38 2
36 37 39 1
37 40 41 1
38 41 42 1
39 41 44 1
40 42 43 2
41 44 45 1
42 45 46 2
43 45 47 1
44 46 48 1
45 47 49 2
46 48 50 2
47 49 50 1
48 51 52 1
49 52 53 1
50 52 55 1
51 53 54 2
52 53 56 1
53 56 57 1
54 57 58 1
55 58 59 2
56 58 60 1
57 60 61 1
58 61 62 1
59 62 63 2
60 62 64 1
61 64 65 1
62 65 66 1
63 65 68 1
64 66 67 2
65 66 72 1
66 68 69 1
67 69 70 1
68 69 71 1
69 72 73 1
70 73 74 1
71 73 76 1
72 74 75 2
73 74 82 1
74 76 77 1
75 77 78 2
76 77 79 1
77 78 81 1
78 79 80 2
79 80 81 1
80 82 83 1
81 83 84 1
82 83 86 1
83 84 85 2
84 86 87 1
85 87 88 2
86 87 89 1
87 88 91 1
88 89 90 2
89 90 91 1
90 92 93 1
91 93 94 1
92 94 95 2
93 94 96 1
94 96 97 1
95 97 98 1
96 97 100 1
97 98 99 2
98 98 107 1
99 100 101 1
100 101 102 2
101 101 103 1
102 102 104 1
103 103 105 2
104 104 106 2
105 105 106 1
106 107 108 1
107 108 109 1
108 108 111 1
109 109 110 2
110 111 112 1
111 113 114 1
112 114 115 1
113 114 117 1
114 115 116 2
115 117 118 1
116 118 119 2
117 118 120 1
118 121 122 1
119 122 123 1
120 122 125 1
121 123 124 2
122 125 126 1
123 126 127 2
124 126 128 1
125 127 130 1
126 128 129 2
127 129 130 1
128 131 132 1
129 132 133 1
130 132 135 1
131 133 134 2
132 135 136 1
133 136 137 2
134 136 138 1
135 137 139 1
136 138 140 2
137 139 141 2
138 140 141 1
139 142 143 1
140 143 144 1
141 143 146 1
142 144 145 2
143 146 147 1
144 147 148 1
145 148 149 1
146 148 150 2
147 151 152 1
148 152 153 1
149 152 155 1
150 153 154 2
151 155 156 1
152 156 157 2
153 156 158 1
154 159 160 1
155 160 161 1
156 160 163 1
157 161 162 2
158 163 164 1
159 164 165 1
160 164 166 1
161 167 168 1
162 168 169 1
163 169 170 2
164 169 171 1
165 171 172 1
166 172 173 1
167 173 174 2
168 175 176 1
169 176 177 1
170 176 179 1
171 177 178 2
172 179 180 1
173 180 181 2
174 180 182 1
175 181 183 1
176 182 184 2
177 183 185 2
178 184 185 1
179 185 186 1
@<TRIPOS>SUBSTRUCTURE
1	TYR29	1	RESIDUE	1 B	TYR
2	MET35	13	RESIDUE	1 B	MET
3	ARG39	21	RESIDUE	1 B	ARG
4	ASP104	32	RESIDUE	1 B	ASP
5	PHE114	40	RESIDUE	1 B	PHE
6	ALA141	51	RESIDUE	1 B	ALA
7	GLY142	56	RESIDUE	1 B	GLY
8	GLY143	60	RESIDUE	1 B	GLY
9	LEU144	64	RESIDUE	1 B	LEU
10	HIS145	72	RESIDUE	1 B	HIS
11	HIS146	82	RESIDUE	1 B	HIS
12	GLY154	92	RESIDUE	1 B	GLY
13	PHE155	96	RESIDUE	1 B	PHE
14	CYS156	107	RESIDUE	1 B	CYS
15	ASP181	113	RESIDUE	1 B	ASP
16	HIS183	121	RESIDUE	1 B	HIS
17	PHE210	131	RESIDUE	1 B	PHE
18	GLN265	142	RESIDUE	1 B	GLN
19	ASP269	151	RESIDUE	1 B	ASP
20	LEU276	159	RESIDUE	1 B	LEU
21	GLY305	167	RESIDUE	1 B	GLY
22	GLY306	171	RESIDUE	1 B	GLY
23	TYR308	175	RESIDUE	1 B	TYR
