# created with PyMOL 2.5.2
@<TRIPOS>MOLECULE
EGFR_6JWL_TargetProtein
172 162 22              
SMALL
USER_CHARGES
@<TRIPOS>ATOM
1	   N	-45.207	4.197	-18.281	N.am	1	LEU718	0.000	
2	  CA	-45.929	3.017	-17.843	C.3	1	LEU718	0.000	
3	   C	-45.137	1.731	-18.002	C.2	1	LEU718	0.000	
4	   O	-45.134	0.885	-17.122	O.2	1	LEU718	0.000	
5	  CB	-47.262	2.918	-18.567	C.3	1	LEU718	0.000	
6	  CG	-48.192	4.071	-18.225	C.3	1	LEU718	0.000	
7	 CD1	-49.555	3.870	-18.850	C.3	1	LEU718	0.000	
8	 CD2	-48.309	4.196	-16.721	C.3	1	LEU718	0.000	
9	   N	-44.466	1.575	-19.131	N.am	2	GLY719	0.000	
10	  CA	-43.655	0.395	-19.333	C.3	2	GLY719	0.000	
11	   C	-42.496	0.634	-20.266	C.2	2	GLY719	0.000	
12	   O	-42.582	1.452	-21.169	O.2	2	GLY719	0.000	
13	   N	-39.195	-4.412	-27.069	N.am	3	PHE723	0.000	
14	  CA	-40.110	-4.145	-28.166	C.3	3	PHE723	0.000	
15	   C	-40.610	-2.702	-28.238	C.2	3	PHE723	0.000	
16	   O	-40.669	-2.132	-29.316	O.2	3	PHE723	0.000	
17	  CB	-41.297	-5.105	-28.105	C.3	3	PHE723	0.000	
18	  CG	-42.302	-4.783	-26.997	C.2	3	PHE723	0.000	
19	 CD1	-42.162	-5.347	-25.767	C.2	3	PHE723	0.000	
20	 CD2	-43.335	-3.933	-27.242	C.2	3	PHE723	0.000	
21	 CE1	-43.094	-5.047	-24.739	C.2	3	PHE723	0.000	
22	 CE2	-44.267	-3.634	-26.213	C.2	3	PHE723	0.000	
23	  CZ	-44.127	-4.197	-24.984	C.2	3	PHE723	0.000	
24	   N	-44.102	2.707	-23.360	N.am	4	VAL726	0.000	
25	  CA	-45.416	3.339	-23.228	C.3	4	VAL726	0.000	
26	   C	-45.472	4.401	-22.137	C.2	4	VAL726	0.000	
27	   O	-44.902	4.225	-21.076	O.2	4	VAL726	0.000	
28	  CB	-46.501	2.308	-22.911	C.3	4	VAL726	0.000	
29	 CG1	-47.783	3.012	-22.516	C.3	4	VAL726	0.000	
30	 CG2	-46.737	1.402	-24.098	C.3	4	VAL726	0.000	
31	   N	-47.839	7.111	-19.682	N.am	5	LYS728	0.000	
32	  CA	-48.963	7.820	-19.115	C.3	5	LYS728	0.000	
33	   C	-48.858	9.291	-19.463	C.2	5	LYS728	0.000	
34	   O	-47.822	9.904	-19.270	O.2	5	LYS728	0.000	
35	  CB	-48.916	7.649	-17.595	C.3	5	LYS728	0.000	
36	  CG	-49.793	8.568	-16.777	C.3	5	LYS728	0.000	
37	  CD	-49.426	8.436	-15.275	C.3	5	LYS728	0.000	
38	  CE	-50.190	7.282	-14.623	C.3	5	LYS728	0.000	
39	  NZ	-49.973	7.277	-13.159	N.4	5	LYS728	0.000	
40	   N	-52.649	6.991	-22.916	N.am	6	ALA743	0.000	
41	  CA	-51.427	6.219	-22.974	C.3	6	ALA743	0.000	
42	   C	-50.836	6.408	-24.369	C.2	6	ALA743	0.000	
43	   O	-51.575	6.482	-25.355	O.2	6	ALA743	0.000	
44	  CB	-51.686	4.731	-22.669	C.3	6	ALA743	0.000	
45	   N	-47.695	5.260	-27.106	N.am	7	LYS745	0.000	
46	  CA	-46.875	4.105	-27.412	C.3	7	LYS745	0.000	
47	   C	-45.936	4.404	-28.579	C.2	7	LYS745	0.000	
48	   O	-46.359	4.924	-29.618	O.2	7	LYS745	0.000	
49	  CB	-47.747	2.881	-27.758	C.3	7	LYS745	0.000	
50	  CG	-46.908	1.614	-27.885	C.3	7	LYS745	0.000	
51	  CD	-47.540	0.554	-28.747	C.3	7	LYS745	0.000	
52	  CE	-48.822	0.046	-28.134	C.3	7	LYS745	0.000	
53	  NZ	-49.422	-1.089	-28.866	N.4	7	LYS745	0.000	
54	   N	-53.924	6.162	-27.070	N.am	8	THR790	0.000	
55	  CA	-55.153	5.479	-26.745	C.3	8	THR790	0.000	
56	   C	-55.613	5.893	-25.364	C.2	8	THR790	0.000	
57	   O	-54.986	6.700	-24.679	O.2	8	THR790	0.000	
58	  CB	-54.974	3.972	-26.773	C.3	8	THR790	0.000	
59	 CG2	-54.275	3.567	-28.001	C.3	8	THR790	0.000	
60	 OG1	-54.214	3.605	-25.624	O.3	8	THR790	0.000	
61	   N	-56.742	5.331	-24.972	N.am	9	GLN791	0.000	
62	  CA	-57.306	5.634	-23.674	C.3	9	GLN791	0.000	
63	   C	-56.459	5.011	-22.584	C.2	9	GLN791	0.000	
64	   O	-56.030	3.856	-22.676	O.2	9	GLN791	0.000	
65	  CB	-58.737	5.140	-23.600	C.3	9	GLN791	0.000	
66	  CG	-59.262	4.823	-22.256	C.3	9	GLN791	0.000	
67	  CD	-60.650	4.223	-22.402	C.2	9	GLN791	0.000	
68	 NE2	-61.642	4.855	-21.763	N.pl3	9	GLN791	0.000	
69	 OE1	-60.834	3.225	-23.125	O.2	9	GLN791	0.000	
70	   N	-56.181	5.830	-21.581	N.am	10	LEU792	0.000	
71	  CA	-55.466	5.399	-20.403	C.3	10	LEU792	0.000	
72	   C	-56.379	4.548	-19.544	C.2	10	LEU792	0.000	
73	   O	-57.486	4.965	-19.209	O.2	10	LEU792	0.000	
74	  CB	-54.985	6.609	-19.611	C.3	10	LEU792	0.000	
75	  CG	-54.224	6.106	-18.403	C.3	10	LEU792	0.000	
76	 CD1	-53.014	5.318	-18.823	C.3	10	LEU792	0.000	
77	 CD2	-53.851	7.268	-17.551	C.3	10	LEU792	0.000	
78	   N	-55.884	3.390	-19.163	N.am	11	MET793	0.000	
79	  CA	-56.630	2.479	-18.329	C.3	11	MET793	0.000	
80	   C	-55.988	2.446	-16.963	C.2	11	MET793	0.000	
81	   O	-55.005	1.717	-16.765	O.2	11	MET793	0.000	
82	  CB	-56.622	1.104	-18.975	C.3	11	MET793	0.000	
83	  CG	-57.222	1.154	-20.361	C.3	11	MET793	0.000	
84	  SD	-59.007	1.592	-20.441	S.3	11	MET793	0.000	
85	  CE	-59.568	-0.078	-20.446	C.3	11	MET793	0.000	
86	   N	-56.487	3.238	-16.012	N.am	12	PRO794	0.000	
87	  CA	-55.665	3.570	-14.833	C.3	12	PRO794	0.000	
88	   C	-55.285	2.388	-13.947	C.2	12	PRO794	0.000	
89	   O	-54.277	2.473	-13.244	O.2	12	PRO794	0.000	
90	  CB	-56.540	4.596	-14.095	C.3	12	PRO794	0.000	
91	  CG	-57.389	5.211	-15.212	C.3	12	PRO794	0.000	
92	  CD	-57.710	4.062	-16.085	C.3	12	PRO794	0.000	
93	   N	-56.040	1.306	-13.991	N.am	13	PHE795	0.000	
94	  CA	-55.747	0.166	-13.143	C.3	13	PHE795	0.000	
95	   C	-54.824	-0.864	-13.781	C.2	13	PHE795	0.000	
96	   O	-54.477	-1.859	-13.163	O.2	13	PHE795	0.000	
97	  CB	-57.037	-0.452	-12.636	C.3	13	PHE795	0.000	
98	  CG	-57.812	0.458	-11.741	C.2	13	PHE795	0.000	
99	 CD1	-58.710	1.358	-12.263	C.2	13	PHE795	0.000	
100	 CD2	-57.618	0.432	-10.379	C.2	13	PHE795	0.000	
101	 CE1	-59.417	2.208	-11.442	C.2	13	PHE795	0.000	
102	 CE2	-58.322	1.274	-9.550	C.2	13	PHE795	0.000	
103	  CZ	-59.224	2.164	-10.082	C.2	13	PHE795	0.000	
104	   N	-54.417	-0.614	-15.015	N.am	14	GLY796	0.000	
105	  CA	-53.451	-1.462	-15.675	C.3	14	GLY796	0.000	
106	   C	-54.059	-2.716	-16.240	C.2	14	GLY796	0.000	
107	   O	-55.266	-2.830	-16.340	O.2	14	GLY796	0.000	
108	   N	-53.212	-3.654	-16.626	N.am	15	CYS797	0.000	
109	  CA	-53.661	-4.907	-17.174	C.3	15	CYS797	0.000	
110	   C	-54.240	-5.800	-16.098	C.2	15	CYS797	0.000	
111	   O	-53.913	-5.677	-14.984	O.2	15	CYS797	0.000	
112	  CB	-52.520	-5.654	-17.824	C.3	15	CYS797	0.000	
113	  SG	-51.104	-5.607	-16.721	S.3	15	CYS797	0.000	
114	   N	-51.754	-8.272	-14.026	N.am	16	ASP800	0.000	
115	  CA	-51.103	-7.588	-12.934	C.3	16	ASP800	0.000	
116	   C	-52.090	-7.281	-11.831	C.2	16	ASP800	0.000	
117	   O	-51.761	-7.357	-10.660	O.2	16	ASP800	0.000	
118	  CB	-50.420	-6.320	-13.421	C.3	16	ASP800	0.000	
119	  CG	-49.056	-6.588	-13.993	C.2	16	ASP800	0.000	
120	 OD1	-48.504	-7.667	-13.727	O.co2	16	ASP800	0.000	
121	 OD2	-48.532	-5.724	-14.713	O.co2	16	ASP800	0.000	
122	   N	-52.020	-8.349	-7.759	N.am	17	GLU804	0.000	
123	  CA	-51.897	-7.412	-6.651	C.3	17	GLU804	0.000	
124	   C	-53.091	-7.474	-5.712	C.2	17	GLU804	0.000	
125	   O	-52.936	-7.240	-4.508	O.2	17	GLU804	0.000	
126	  CB	-51.695	-5.984	-7.186	C.3	17	GLU804	0.000	
127	  CG	-50.240	-5.696	-7.536	C.3	17	GLU804	0.000	
128	  CD	-50.075	-4.270	-8.064	C.2	17	GLU804	0.000	
129	 OE1	-50.714	-3.969	-9.095	O.co2	17	GLU804	0.000	
130	 OE2	-49.314	-3.512	-7.425	O.co2	17	GLU804	0.000	
131	   N	-52.611	-10.433	-19.809	N.am	18	ARG841	0.000	
132	  CA	-51.735	-9.272	-19.941	C.3	18	ARG841	0.000	
133	   C	-52.284	-8.283	-20.970	C.2	18	ARG841	0.000	
134	   O	-51.966	-7.098	-20.892	O.2	18	ARG841	0.000	
135	  CB	-50.295	-9.709	-20.323	C.3	18	ARG841	0.000	
136	  CG	-50.121	-10.064	-21.773	C.3	18	ARG841	0.000	
137	  CD	-48.748	-10.659	-22.142	C.3	18	ARG841	0.000	
138	  NE	-48.955	-12.102	-22.260	N.pl3	18	ARG841	0.000	
139	  CZ	-49.280	-12.754	-23.370	C.cat	18	ARG841	0.000	
140	 NH1	-49.343	-12.113	-24.530	N.pl3	18	ARG841	0.000	
141	 NH2	-49.507	-14.068	-23.305	N.pl3	18	ARG841	0.000	
142	   N	-57.220	-4.799	-20.214	N.am	19	LEU844	0.000	
143	  CA	-56.920	-3.653	-19.367	C.3	19	LEU844	0.000	
144	   C	-58.140	-3.251	-18.575	C.2	19	LEU844	0.000	
145	   O	-59.262	-3.566	-18.944	O.2	19	LEU844	0.000	
146	  CB	-56.449	-2.412	-20.166	C.3	19	LEU844	0.000	
147	  CG	-55.212	-2.645	-21.036	C.3	19	LEU844	0.000	
148	 CD1	-54.773	-1.441	-21.877	C.3	19	LEU844	0.000	
149	 CD2	-54.009	-3.057	-20.194	C.3	19	LEU844	0.000	
150	   N	-57.112	-5.403	-25.657	N.am	20	THR854	0.000	
151	  CA	-56.053	-4.559	-26.192	C.3	20	THR854	0.000	
152	   C	-55.011	-5.397	-26.926	C.2	20	THR854	0.000	
153	   O	-55.204	-6.586	-27.117	O.2	20	THR854	0.000	
154	  CB	-55.396	-3.712	-25.091	C.3	20	THR854	0.000	
155	 CG2	-54.510	-4.562	-24.222	C.3	20	THR854	0.000	
156	 OG1	-54.614	-2.678	-25.686	O.3	20	THR854	0.000	
157	   N	-53.891	-4.804	-27.346	N.am	21	ASP855	0.000	
158	  CA	-52.847	-5.467	-28.136	C.3	21	ASP855	0.000	
159	   C	-53.279	-6.066	-29.473	C.2	21	ASP855	0.000	
160	   O	-53.300	-7.270	-29.660	O.2	21	ASP855	0.000	
161	  CB	-52.084	-6.496	-27.310	C.3	21	ASP855	0.000	
162	  CG	-50.637	-6.606	-27.727	C.2	21	ASP855	0.000	
163	 OD1	-50.373	-6.614	-28.939	O.co2	21	ASP855	0.000	
164	 OD2	-49.758	-6.678	-26.851	O.co2	21	ASP855	0.000	
165	   N	-53.394	10.605	-10.142	N.am	22	MET1002	0.000	
166	  CA	-52.925	9.719	-11.202	C.3	22	MET1002	0.000	
167	   C	-52.028	10.424	-12.210	C.2	22	MET1002	0.000	
168	   O	-51.002	9.890	-12.621	O.2	22	MET1002	0.000	
169	  CB	-54.107	9.083	-11.927	C.3	22	MET1002	0.000	
170	  CG	-53.733	7.892	-12.790	C.3	22	MET1002	0.000	
171	  SD	-52.941	6.641	-11.793	S.3	22	MET1002	0.000	
172	  CE	-54.323	6.126	-10.787	C.3	22	MET1002	0.000	
@<TRIPOS>BOND
1 1 2 1
2 2 3 1
3 2 5 1
4 3 4 2
5 3 9 1
6 5 6 1
7 6 7 1
8 6 8 1
9 9 10 1
10 10 11 1
11 11 12 2
12 13 14 1
13 14 15 1
14 14 17 1
15 15 16 2
16 17 18 1
17 18 19 2
18 18 20 1
19 19 21 1
20 20 22 2
21 21 23 2
22 22 23 1
23 24 25 1
24 25 26 1
25 25 28 1
26 26 27 2
27 28 29 1
28 28 30 1
29 31 32 1
30 32 33 1
31 32 35 1
32 33 34 2
33 35 36 1
34 36 37 1
35 37 38 1
36 38 39 1
37 40 41 1
38 41 42 1
39 41 44 1
40 42 43 2
41 45 46 1
42 46 47 1
43 46 49 1
44 47 48 2
45 49 50 1
46 50 51 1
47 51 52 1
48 52 53 1
49 54 55 1
50 55 56 1
51 55 58 1
52 56 57 2
53 56 61 1
54 58 59 1
55 58 60 1
56 61 62 1
57 62 63 1
58 62 65 1
59 63 64 2
60 63 70 1
61 65 66 1
62 66 67 1
63 67 68 1
64 67 69 2
65 70 71 1
66 71 72 1
67 71 74 1
68 72 73 2
69 72 78 1
70 74 75 1
71 75 76 1
72 75 77 1
73 78 79 1
74 79 80 1
75 79 82 1
76 80 81 2
77 80 86 1
78 82 83 1
79 83 84 1
80 84 85 1
81 86 87 1
82 86 92 1
83 87 88 1
84 87 90 1
85 88 89 2
86 88 93 1
87 90 91 1
88 91 92 1
89 93 94 1
90 94 95 1
91 94 97 1
92 95 96 2
93 95 104 1
94 97 98 1
95 98 99 2
96 98 100 1
97 99 101 1
98 100 102 2
99 101 103 2
100 102 103 1
101 104 105 1
102 105 106 1
103 106 107 2
104 106 108 1
105 108 109 1
106 109 110 1
107 109 112 1
108 110 111 2
109 112 113 1
110 114 115 1
111 115 116 1
112 115 118 1
113 116 117 2
114 118 119 1
115 119 120 2
116 119 121 1
117 122 123 1
118 123 124 1
119 123 126 1
120 124 125 2
121 126 127 1
122 127 128 1
123 128 129 2
124 128 130 1
125 131 132 1
126 132 133 1
127 132 135 1
128 133 134 2
129 135 136 1
130 136 137 1
131 137 138 1
132 138 139 1
133 139 140 2
134 139 141 1
135 142 143 1
136 143 144 1
137 143 146 1
138 144 145 2
139 146 147 1
140 147 148 1
141 147 149 1
142 150 151 1
143 151 152 1
144 151 154 1
145 152 153 2
146 152 157 1
147 154 155 1
148 154 156 1
149 157 158 1
150 158 159 1
151 158 161 1
152 159 160 2
153 161 162 1
154 162 163 2
155 162 164 1
156 165 166 1
157 166 167 1
158 166 169 1
159 167 168 2
160 169 170 1
161 170 171 1
162 171 172 1
@<TRIPOS>SUBSTRUCTURE
1	LEU718	1	RESIDUE	1 B	LEU
2	GLY719	9	RESIDUE	1 B	GLY
3	PHE723	13	RESIDUE	1 B	PHE
4	VAL726	24	RESIDUE	1 B	VAL
5	LYS728	31	RESIDUE	1 B	LYS
6	ALA743	40	RESIDUE	1 B	ALA
7	LYS745	45	RESIDUE	1 B	LYS
8	THR790	54	RESIDUE	1 B	THR
9	GLN791	61	RESIDUE	1 B	GLN
10	LEU792	70	RESIDUE	1 B	LEU
11	MET793	78	RESIDUE	1 B	MET
12	PRO794	86	RESIDUE	1 B	PRO
13	PHE795	93	RESIDUE	1 B	PHE
14	GLY796	104	RESIDUE	1 B	GLY
15	CYS797	108	RESIDUE	1 B	CYS
16	ASP800	114	RESIDUE	1 B	ASP
17	GLU804	122	RESIDUE	1 B	GLU
18	ARG841	131	RESIDUE	1 B	ARG
19	LEU844	142	RESIDUE	1 B	LEU
20	THR854	150	RESIDUE	1 B	THR
21	ASP855	157	RESIDUE	1 B	ASP
22	MET1002	165	RESIDUE	1 B	MET
