# created with PyMOL 2.5.2
@<TRIPOS>MOLECULE
EGFR_6XL4_TargetProtein
185 179 24              
SMALL
USER_CHARGES
@<TRIPOS>ATOM
1	   N	-35.335	23.645	-12.179	N.am	1	LEU718	0.000	
2	  CA	-34.705	22.544	-11.465	C.3	1	LEU718	0.000	
3	   C	-34.754	22.778	-9.965	C.2	1	LEU718	0.000	
4	   O	-34.711	21.817	-9.189	O.2	1	LEU718	0.000	
5	  CB	-33.257	22.357	-11.935	C.3	1	LEU718	0.000	
6	  CG	-33.111	21.966	-13.409	C.3	1	LEU718	0.000	
7	 CD1	-31.648	21.778	-13.790	C.3	1	LEU718	0.000	
8	 CD2	-33.916	20.711	-13.713	C.3	1	LEU718	0.000	
9	   N	-34.845	24.038	-9.555	N.am	2	GLY719	0.000	
10	  CA	-34.971	24.439	-8.174	C.3	2	GLY719	0.000	
11	   C	-34.742	25.931	-8.058	C.2	2	GLY719	0.000	
12	   O	-34.169	26.543	-8.965	O.2	2	GLY719	0.000	
13	   N	-30.606	32.389	-3.981	N.am	3	PHE723	0.000	
14	  CA	-29.447	32.621	-4.827	C.3	3	PHE723	0.000	
15	   C	-29.824	32.828	-6.282	C.2	3	PHE723	0.000	
16	   O	-28.964	33.200	-7.087	O.2	3	PHE723	0.000	
17	  CB	-28.515	31.399	-4.764	C.3	3	PHE723	0.000	
18	  CG	-29.176	30.112	-5.241	C.2	3	PHE723	0.000	
19	 CD1	-29.186	29.765	-6.588	C.2	3	PHE723	0.000	
20	 CD2	-29.795	29.259	-4.341	C.2	3	PHE723	0.000	
21	 CE1	-29.801	28.600	-7.026	C.2	3	PHE723	0.000	
22	 CE2	-30.409	28.090	-4.772	C.2	3	PHE723	0.000	
23	  CZ	-30.409	27.764	-6.116	C.2	3	PHE723	0.000	
24	   N	-32.483	28.112	-11.047	N.am	4	VAL726	0.000	
25	  CA	-31.742	27.304	-12.008	C.3	4	VAL726	0.000	
26	   C	-32.758	26.565	-12.861	C.2	4	VAL726	0.000	
27	   O	-33.630	25.863	-12.334	O.2	4	VAL726	0.000	
28	  CB	-30.768	26.330	-11.323	C.3	4	VAL726	0.000	
29	 CG1	-30.129	25.420	-12.361	C.3	4	VAL726	0.000	
30	 CG2	-29.688	27.106	-10.595	C.3	4	VAL726	0.000	
31	   N	-27.948	23.948	-18.607	N.am	5	ALA743	0.000	
32	  CA	-28.428	24.488	-17.344	C.3	5	ALA743	0.000	
33	   C	-28.267	26.002	-17.354	C.2	5	ALA743	0.000	
34	   O	-27.224	26.525	-17.756	O.2	5	ALA743	0.000	
35	  CB	-27.676	23.887	-16.156	C.3	5	ALA743	0.000	
36	   N	-28.845	29.589	-15.029	N.am	6	LYS745	0.000	
37	  CA	-29.014	30.182	-13.711	C.3	6	LYS745	0.000	
38	   C	-29.402	31.642	-13.866	C.2	6	LYS745	0.000	
39	   O	-28.640	32.437	-14.424	O.2	6	LYS745	0.000	
40	  CB	-27.731	30.089	-12.893	C.3	6	LYS745	0.000	
41	  CG	-27.888	30.586	-11.478	C.3	6	LYS745	0.000	
42	  CD	-26.616	30.369	-10.711	C.3	6	LYS745	0.000	
43	  CE	-26.663	31.040	-9.363	C.3	6	LYS745	0.000	
44	  NZ	-25.544	30.557	-8.527	N.4	6	LYS745	0.000	
45	   N	-24.220	26.631	-17.931	N.am	7	MET790	0.000	
46	  CA	-23.240	25.573	-17.748	C.3	7	MET790	0.000	
47	   C	-23.823	24.297	-18.336	C.2	7	MET790	0.000	
48	   O	-24.966	24.268	-18.804	O.2	7	MET790	0.000	
49	  CB	-22.865	25.391	-16.268	C.3	7	MET790	0.000	
50	  CG	-23.984	24.841	-15.386	C.3	7	MET790	0.000	
51	  SD	-23.469	24.477	-13.686	S.3	7	MET790	0.000	
52	  CE	-22.460	23.014	-13.920	C.3	7	MET790	0.000	
53	   N	-23.025	23.236	-18.323	N.am	8	GLN791	0.000	
54	  CA	-23.481	21.958	-18.846	C.3	8	GLN791	0.000	
55	   C	-24.550	21.361	-17.937	C.2	8	GLN791	0.000	
56	   O	-24.465	21.449	-16.708	O.2	8	GLN791	0.000	
57	  CB	-22.300	21.001	-18.992	C.3	8	GLN791	0.000	
58	  CG	-22.570	19.793	-19.864	C.3	8	GLN791	0.000	
59	  CD	-21.353	18.902	-19.999	C.2	8	GLN791	0.000	
60	 NE2	-21.344	18.060	-21.028	N.pl3	8	GLN791	0.000	
61	 OE1	-20.426	18.976	-19.194	O.2	8	GLN791	0.000	
62	   N	-25.565	20.758	-18.550	N.am	9	LEU792	0.000	
63	  CA	-26.628	20.102	-17.801	C.3	9	LEU792	0.000	
64	   C	-26.190	18.702	-17.392	C.2	9	LEU792	0.000	
65	   O	-25.692	17.932	-18.218	O.2	9	LEU792	0.000	
66	  CB	-27.909	20.029	-18.635	C.3	9	LEU792	0.000	
67	  CG	-29.110	19.320	-17.994	C.3	9	LEU792	0.000	
68	 CD1	-29.659	20.108	-16.812	C.3	9	LEU792	0.000	
69	 CD2	-30.202	19.051	-19.019	C.3	9	LEU792	0.000	
70	   N	-26.370	18.378	-16.110	N.am	10	MET793	0.000	
71	  CA	-26.072	17.050	-15.593	C.3	10	MET793	0.000	
72	   C	-27.396	16.329	-15.380	C.2	10	MET793	0.000	
73	   O	-28.060	16.550	-14.356	O.2	10	MET793	0.000	
74	  CB	-25.280	17.135	-14.286	C.3	10	MET793	0.000	
75	  CG	-24.043	18.011	-14.390	C.3	10	MET793	0.000	
76	  SD	-22.831	17.330	-15.539	S.3	10	MET793	0.000	
77	  CE	-21.521	18.545	-15.421	C.3	10	MET793	0.000	
78	   N	-27.826	15.471	-16.310	N.am	11	PRO794	0.000	
79	  CA	-29.162	14.858	-16.196	C.3	11	PRO794	0.000	
80	   C	-29.355	13.998	-14.961	C.2	11	PRO794	0.000	
81	   O	-30.502	13.803	-14.539	O.2	11	PRO794	0.000	
82	  CB	-29.272	14.017	-17.477	C.3	11	PRO794	0.000	
83	  CG	-27.860	13.857	-17.964	C.3	11	PRO794	0.000	
84	  CD	-27.149	15.102	-17.563	C.3	11	PRO794	0.000	
85	   N	-28.283	13.477	-14.368	N.am	12	PHE795	0.000	
86	  CA	-28.406	12.657	-13.170	C.3	12	PHE795	0.000	
87	   C	-28.658	13.475	-11.912	C.2	12	PHE795	0.000	
88	   O	-29.033	12.901	-10.885	O.2	12	PHE795	0.000	
89	  CB	-27.153	11.799	-12.993	C.3	12	PHE795	0.000	
90	  CG	-27.182	10.523	-13.779	C.2	12	PHE795	0.000	
91	 CD1	-27.837	9.408	-13.282	C.2	12	PHE795	0.000	
92	 CD2	-26.573	10.441	-15.022	C.2	12	PHE795	0.000	
93	 CE1	-27.871	8.229	-14.002	C.2	12	PHE795	0.000	
94	 CE2	-26.605	9.266	-15.747	C.2	12	PHE795	0.000	
95	  CZ	-27.256	8.158	-15.236	C.2	12	PHE795	0.000	
96	   N	-28.459	14.786	-11.966	N.am	13	GLY796	0.000	
97	  CA	-28.679	15.637	-10.820	C.3	13	GLY796	0.000	
98	   C	-27.484	15.698	-9.887	C.2	13	GLY796	0.000	
99	   O	-26.361	15.310	-10.218	O.2	13	GLY796	0.000	
100	   N	-27.747	16.213	-8.692	N.am	14	CYS797	0.000	
101	  CA	-26.718	16.394	-7.681	C.3	14	CYS797	0.000	
102	   C	-26.520	15.116	-6.871	C.2	14	CYS797	0.000	
103	   O	-27.396	14.251	-6.798	O.2	14	CYS797	0.000	
104	  CB	-27.074	17.555	-6.754	C.3	14	CYS797	0.000	
105	  SG	-28.562	17.273	-5.778	S.3	14	CYS797	0.000	
106	   N	-25.347	15.018	-6.242	N.am	15	LEU798	0.000	
107	  CA	-25.001	13.810	-5.501	C.3	15	LEU798	0.000	
108	   C	-25.855	13.644	-4.250	C.2	15	LEU798	0.000	
109	   O	-26.102	12.511	-3.819	O.2	15	LEU798	0.000	
110	  CB	-23.514	13.827	-5.146	C.3	15	LEU798	0.000	
111	  CG	-22.897	12.513	-4.666	C.3	15	LEU798	0.000	
112	 CD1	-23.223	11.392	-5.639	C.3	15	LEU798	0.000	
113	 CD2	-21.389	12.665	-4.520	C.3	15	LEU798	0.000	
114	   N	-26.308	14.749	-3.653	N.am	16	LEU799	0.000	
115	  CA	-27.165	14.661	-2.473	C.3	16	LEU799	0.000	
116	   C	-28.463	13.930	-2.790	C.2	16	LEU799	0.000	
117	   O	-28.824	12.961	-2.112	O.2	16	LEU799	0.000	
118	  CB	-27.458	16.059	-1.928	C.3	16	LEU799	0.000	
119	  CG	-28.408	16.128	-0.727	C.3	16	LEU799	0.000	
120	 CD1	-27.852	15.359	0.469	C.3	16	LEU799	0.000	
121	 CD2	-28.702	17.574	-0.352	C.3	16	LEU799	0.000	
122	   N	-29.186	14.388	-3.818	N.am	17	ASP800	0.000	
123	  CA	-30.414	13.707	-4.214	C.3	17	ASP800	0.000	
124	   C	-30.135	12.275	-4.646	C.2	17	ASP800	0.000	
125	   O	-30.942	11.375	-4.391	O.2	17	ASP800	0.000	
126	  CB	-31.107	14.463	-5.349	C.3	17	ASP800	0.000	
127	  CG	-31.518	15.866	-4.960	C.2	17	ASP800	0.000	
128	 OD1	-31.597	16.158	-3.748	O.co2	17	ASP800	0.000	
129	 OD2	-31.779	16.677	-5.874	O.co2	17	ASP800	0.000	
130	   N	-31.856	9.032	-3.147	N.am	18	GLU804	0.000	
131	  CA	-32.687	8.226	-4.035	C.3	18	GLU804	0.000	
132	   C	-32.248	6.772	-4.096	C.2	18	GLU804	0.000	
133	   O	-33.088	5.891	-4.304	O.2	18	GLU804	0.000	
134	  CB	-32.663	8.815	-5.447	C.3	18	GLU804	0.000	
135	  CG	-33.483	10.059	-5.655	C.3	18	GLU804	0.000	
136	  CD	-33.320	10.598	-7.058	C.2	18	GLU804	0.000	
137	 OE1	-32.784	9.864	-7.917	O.co2	18	GLU804	0.000	
138	 OE2	-33.778	11.729	-7.317	O.co2	18	GLU804	0.000	
139	   N	-22.697	18.176	-0.484	N.am	19	ALA840	0.000	
140	  CA	-23.197	17.142	-1.384	C.3	19	ALA840	0.000	
141	   C	-24.168	17.707	-2.414	C.2	19	ALA840	0.000	
142	   O	-24.290	17.160	-3.514	O.2	19	ALA840	0.000	
143	  CB	-23.863	16.025	-0.581	C.3	19	ALA840	0.000	
144	   N	-24.866	18.796	-2.081	N.am	20	ARG841	0.000	
145	  CA	-25.735	19.442	-3.057	C.3	20	ARG841	0.000	
146	   C	-24.942	20.112	-4.170	C.2	20	ARG841	0.000	
147	   O	-25.480	20.317	-5.263	O.2	20	ARG841	0.000	
148	  CB	-26.628	20.484	-2.379	C.3	20	ARG841	0.000	
149	  CG	-25.863	21.681	-1.836	C.3	20	ARG841	0.000	
150	  CD	-26.770	22.678	-1.136	C.3	20	ARG841	0.000	
151	  NE	-26.014	23.821	-0.632	N.pl3	20	ARG841	0.000	
152	  CZ	-25.486	23.892	0.587	C.cat	20	ARG841	0.000	
153	 NH1	-24.808	24.971	0.957	N.pl3	20	ARG841	0.000	
154	 NH2	-25.636	22.886	1.439	N.pl3	20	ARG841	0.000	
155	   N	-23.683	20.467	-3.910	N.am	21	ASN842	0.000	
156	  CA	-22.822	21.109	-4.893	C.3	21	ASN842	0.000	
157	   C	-21.825	20.138	-5.513	C.2	21	ASN842	0.000	
158	   O	-20.750	20.550	-5.960	O.2	21	ASN842	0.000	
159	  CB	-22.102	22.303	-4.269	C.3	21	ASN842	0.000	
160	  CG	-23.029	23.482	-4.052	C.2	21	ASN842	0.000	
161	 ND2	-22.685	24.347	-3.107	N.pl3	21	ASN842	0.000	
162	 OD1	-24.048	23.610	-4.730	O.2	21	ASN842	0.000	
163	   N	-22.153	18.850	-5.522	N.am	22	VAL843	0.000	
164	  CA	-21.444	17.851	-6.312	C.3	22	VAL843	0.000	
165	   C	-22.448	17.269	-7.297	C.2	22	VAL843	0.000	
166	   O	-23.454	16.678	-6.885	O.2	22	VAL843	0.000	
167	  CB	-20.831	16.747	-5.437	C.3	22	VAL843	0.000	
168	 CG1	-20.174	15.691	-6.314	C.3	22	VAL843	0.000	
169	 CG2	-19.825	17.339	-4.463	C.3	22	VAL843	0.000	
170	   N	-22.187	17.440	-8.588	N.am	23	LEU844	0.000	
171	  CA	-23.113	16.983	-9.613	C.3	23	LEU844	0.000	
172	   C	-22.677	15.633	-10.166	C.2	23	LEU844	0.000	
173	   O	-21.485	15.339	-10.278	O.2	23	LEU844	0.000	
174	  CB	-23.232	18.005	-10.744	C.3	23	LEU844	0.000	
175	  CG	-23.713	19.380	-10.271	C.3	23	LEU844	0.000	
176	 CD1	-23.860	20.339	-11.445	C.3	23	LEU844	0.000	
177	 CD2	-25.009	19.266	-9.479	C.3	23	LEU844	0.000	
178	   N	-20.416	25.264	-8.165	N.am	24	ASP855	0.000	
179	  CA	-20.795	26.381	-7.256	C.3	24	ASP855	0.000	
180	   C	-19.639	26.982	-6.462	C.2	24	ASP855	0.000	
181	   O	-19.912	27.677	-5.506	O.2	24	ASP855	0.000	
182	  CB	-21.978	25.999	-6.369	C.3	24	ASP855	0.000	
183	  CG	-23.287	26.626	-6.783	C.2	24	ASP855	0.000	
184	 OD1	-23.418	26.962	-7.963	O.co2	24	ASP855	0.000	
185	 OD2	-24.153	26.778	-5.912	O.co2	24	ASP855	0.000	
@<TRIPOS>BOND
1 1 2 1
2 2 3 1
3 2 5 1
4 3 4 2
5 3 9 1
6 5 6 1
7 6 7 1
8 6 8 1
9 9 10 1
10 10 11 1
11 11 12 2
12 13 14 1
13 14 15 1
14 14 17 1
15 15 16 2
16 17 18 1
17 18 19 2
18 18 20 1
19 19 21 1
20 20 22 2
21 21 23 2
22 22 23 1
23 24 25 1
24 25 26 1
25 25 28 1
26 26 27 2
27 28 29 1
28 28 30 1
29 31 32 1
30 32 33 1
31 32 35 1
32 33 34 2
33 36 37 1
34 37 38 1
35 37 40 1
36 38 39 2
37 40 41 1
38 41 42 1
39 42 43 1
40 43 44 1
41 45 46 1
42 46 47 1
43 46 49 1
44 47 48 2
45 47 53 1
46 49 50 1
47 50 51 1
48 51 52 1
49 53 54 1
50 54 55 1
51 54 57 1
52 55 56 2
53 55 62 1
54 57 58 1
55 58 59 1
56 59 60 1
57 59 61 2
58 62 63 1
59 63 64 1
60 63 66 1
61 64 65 2
62 64 70 1
63 66 67 1
64 67 68 1
65 67 69 1
66 70 71 1
67 71 72 1
68 71 74 1
69 72 73 2
70 72 78 1
71 74 75 1
72 75 76 1
73 76 77 1
74 78 79 1
75 78 84 1
76 79 80 1
77 79 82 1
78 80 81 2
79 80 85 1
80 82 83 1
81 83 84 1
82 85 86 1
83 86 87 1
84 86 89 1
85 87 88 2
86 87 96 1
87 89 90 1
88 90 91 2
89 90 92 1
90 91 93 1
91 92 94 2
92 93 95 2
93 94 95 1
94 96 97 1
95 97 98 1
96 98 99 2
97 98 100 1
98 100 101 1
99 101 102 1
100 101 104 1
101 102 103 2
102 102 106 1
103 104 105 1
104 106 107 1
105 107 108 1
106 107 110 1
107 108 109 2
108 108 114 1
109 110 111 1
110 111 112 1
111 111 113 1
112 114 115 1
113 115 116 1
114 115 118 1
115 116 117 2
116 116 122 1
117 118 119 1
118 119 120 1
119 119 121 1
120 122 123 1
121 123 124 1
122 123 126 1
123 124 125 2
124 126 127 1
125 127 128 2
126 127 129 1
127 130 131 1
128 131 132 1
129 131 134 1
130 132 133 2
131 134 135 1
132 135 136 1
133 136 137 2
134 136 138 1
135 139 140 1
136 140 141 1
137 140 143 1
138 141 142 2
139 141 144 1
140 144 145 1
141 145 146 1
142 145 148 1
143 146 147 2
144 146 155 1
145 148 149 1
146 149 150 1
147 150 151 1
148 151 152 1
149 152 153 2
150 152 154 1
151 155 156 1
152 156 157 1
153 156 159 1
154 157 158 2
155 157 163 1
156 159 160 1
157 160 161 1
158 160 162 2
159 163 164 1
160 164 165 1
161 164 167 1
162 165 166 2
163 165 170 1
164 167 168 1
165 167 169 1
166 170 171 1
167 171 172 1
168 171 174 1
169 172 173 2
170 174 175 1
171 175 176 1
172 175 177 1
173 178 179 1
174 179 180 1
175 179 182 1
176 180 181 2
177 182 183 1
178 183 184 2
179 183 185 1
@<TRIPOS>SUBSTRUCTURE
1	LEU718	1	RESIDUE	1 B	LEU
2	GLY719	9	RESIDUE	1 B	GLY
3	PHE723	13	RESIDUE	1 B	PHE
4	VAL726	24	RESIDUE	1 B	VAL
5	ALA743	31	RESIDUE	1 B	ALA
6	LYS745	36	RESIDUE	1 B	LYS
7	MET790	45	RESIDUE	1 B	MET
8	GLN791	53	RESIDUE	1 B	GLN
9	LEU792	62	RESIDUE	1 B	LEU
10	MET793	70	RESIDUE	1 B	MET
11	PRO794	78	RESIDUE	1 B	PRO
12	PHE795	85	RESIDUE	1 B	PHE
13	GLY796	96	RESIDUE	1 B	GLY
14	CYS797	100	RESIDUE	1 B	CYS
15	LEU798	106	RESIDUE	1 B	LEU
16	LEU799	114	RESIDUE	1 B	LEU
17	ASP800	122	RESIDUE	1 B	ASP
18	GLU804	130	RESIDUE	1 B	GLU
19	ALA840	139	RESIDUE	1 B	ALA
20	ARG841	144	RESIDUE	1 B	ARG
21	ASN842	155	RESIDUE	1 B	ASN
22	VAL843	163	RESIDUE	1 B	VAL
23	LEU844	170	RESIDUE	1 B	LEU
24	ASP855	178	RESIDUE	1 B	ASP
