# created with PyMOL 2.5.2
@<TRIPOS>MOLECULE
EGFR_5X26_TargetProtein
154 144 20              
SMALL
USER_CHARGES
@<TRIPOS>ATOM
1	   N	-46.199	3.489	-18.873	N.am	1	LEU718	0.000	
2	  CA	-47.037	2.447	-18.316	C.3	1	LEU718	0.000	
3	   C	-46.360	1.102	-18.380	C.2	1	LEU718	0.000	
4	   O	-46.333	0.361	-17.411	O.2	1	LEU718	0.000	
5	  CB	-48.359	2.389	-19.058	C.3	1	LEU718	0.000	
6	  CG	-49.291	3.540	-18.742	C.3	1	LEU718	0.000	
7	 CD1	-50.586	3.338	-19.492	C.3	1	LEU718	0.000	
8	 CD2	-49.535	3.611	-17.251	C.3	1	LEU718	0.000	
9	   N	-45.399	1.920	-24.024	N.am	2	VAL726	0.000	
10	  CA	-46.690	2.584	-23.853	C.3	2	VAL726	0.000	
11	   C	-46.637	3.639	-22.753	C.2	2	VAL726	0.000	
12	   O	-46.217	3.344	-21.638	O.2	2	VAL726	0.000	
13	  CB	-47.806	1.593	-23.495	C.3	2	VAL726	0.000	
14	 CG1	-49.122	2.115	-23.999	C.3	2	VAL726	0.000	
15	 CG2	-47.534	0.217	-24.075	C.3	2	VAL726	0.000	
16	   N	-53.530	6.353	-23.429	N.am	3	ALA743	0.000	
17	  CA	-52.293	5.593	-23.542	C.3	3	ALA743	0.000	
18	   C	-51.714	5.840	-24.934	C.2	3	ALA743	0.000	
19	   O	-52.455	6.002	-25.915	O.2	3	ALA743	0.000	
20	  CB	-52.524	4.145	-23.304	C.3	3	ALA743	0.000	
21	   N	-48.873	4.408	-27.569	N.am	4	LYS745	0.000	
22	  CA	-47.977	3.318	-27.863	C.3	4	LYS745	0.000	
23	   C	-47.115	3.680	-29.039	C.2	4	LYS745	0.000	
24	   O	-47.616	4.022	-30.089	O.2	4	LYS745	0.000	
25	  CB	-48.766	2.062	-28.175	C.3	4	LYS745	0.000	
26	  CG	-48.049	1.106	-29.096	C.3	4	LYS745	0.000	
27	  CD	-48.175	-0.311	-28.592	C.3	4	LYS745	0.000	
28	  CE	-48.807	-1.205	-29.638	C.3	4	LYS745	0.000	
29	  NZ	-49.038	-2.580	-29.126	N.4	4	LYS745	0.000	
30	   N	-52.338	-2.556	-37.034	N.am	5	GLU762	0.000	
31	  CA	-53.003	-2.538	-35.735	C.3	5	GLU762	0.000	
32	   C	-53.940	-1.346	-35.579	C.2	5	GLU762	0.000	
33	   O	-55.117	-1.502	-35.288	O.2	5	GLU762	0.000	
34	  CB	-51.953	-2.536	-34.638	C.3	5	GLU762	0.000	
35	  CG	-52.504	-2.490	-33.256	C.3	5	GLU762	0.000	
36	  CD	-51.432	-2.741	-32.223	C.2	5	GLU762	0.000	
37	 OE1	-50.738	-1.773	-31.857	O.co2	5	GLU762	0.000	
38	 OE2	-51.274	-3.910	-31.787	O.co2	5	GLU762	0.000	
39	   N	-57.993	-1.167	-34.796	N.am	6	MET766	0.000	
40	  CA	-58.459	-0.370	-33.677	C.3	6	MET766	0.000	
41	   C	-59.271	0.856	-34.094	C.2	6	MET766	0.000	
42	   O	-60.114	1.347	-33.343	O.2	6	MET766	0.000	
43	  CB	-57.278	0.056	-32.838	C.3	6	MET766	0.000	
44	  CG	-57.187	-0.688	-31.560	C.3	6	MET766	0.000	
45	  SD	-56.070	0.121	-30.424	S.3	6	MET766	0.000	
46	  CE	-54.554	-0.274	-31.255	C.3	6	MET766	0.000	
47	   N	-49.800	5.332	-31.401	N.am	7	LEU788	0.000	
48	  CA	-51.217	5.073	-31.318	C.3	7	LEU788	0.000	
49	   C	-51.801	5.638	-30.056	C.2	7	LEU788	0.000	
50	   O	-51.339	5.364	-28.996	O.2	7	LEU788	0.000	
51	  CB	-51.450	3.582	-31.325	C.3	7	LEU788	0.000	
52	  CG	-51.487	2.964	-32.698	C.3	7	LEU788	0.000	
53	 CD1	-50.741	3.886	-33.608	C.3	7	LEU788	0.000	
54	 CD2	-50.815	1.627	-32.671	C.3	7	LEU788	0.000	
55	   N	-55.091	5.903	-27.636	N.am	8	THR790	0.000	
56	  CA	-56.324	5.280	-27.334	C.3	8	THR790	0.000	
57	   C	-56.628	5.622	-25.913	C.2	8	THR790	0.000	
58	   O	-55.829	6.196	-25.256	O.2	8	THR790	0.000	
59	  CB	-56.203	3.791	-27.547	C.3	8	THR790	0.000	
60	 CG2	-55.243	3.241	-26.590	C.3	8	THR790	0.000	
61	 OG1	-57.486	3.184	-27.382	O.3	8	THR790	0.000	
62	   N	-57.825	5.318	-25.465	N.am	9	GLN791	0.000	
63	  CA	-58.240	5.644	-24.134	C.3	9	GLN791	0.000	
64	   C	-57.491	4.828	-23.169	C.2	9	GLN791	0.000	
65	   O	-57.220	3.687	-23.402	O.2	9	GLN791	0.000	
66	  CB	-59.707	5.352	-23.949	C.3	9	GLN791	0.000	
67	  CG	-60.045	4.917	-22.546	C.3	9	GLN791	0.000	
68	  CD	-61.455	4.428	-22.380	C.2	9	GLN791	0.000	
69	 NE2	-62.267	5.186	-21.699	N.pl3	9	GLN791	0.000	
70	 OE1	-61.788	3.365	-22.826	O.2	9	GLN791	0.000	
71	   N	-57.188	5.433	-22.049	N.am	10	LEU792	0.000	
72	  CA	-56.424	4.803	-21.017	C.3	10	LEU792	0.000	
73	   C	-57.314	4.044	-20.140	C.2	10	LEU792	0.000	
74	   O	-58.387	4.473	-19.844	O.2	10	LEU792	0.000	
75	  CB	-55.792	5.863	-20.160	C.3	10	LEU792	0.000	
76	  CG	-55.202	5.438	-18.844	C.3	10	LEU792	0.000	
77	 CD1	-53.722	5.269	-18.991	C.3	10	LEU792	0.000	
78	 CD2	-55.460	6.528	-17.866	C.3	10	LEU792	0.000	
79	   N	-56.838	2.902	-19.701	N.am	11	MET793	0.000	
80	  CA	-57.561	2.099	-18.751	C.3	11	MET793	0.000	
81	   C	-56.792	2.147	-17.453	C.2	11	MET793	0.000	
82	   O	-55.697	1.634	-17.362	O.2	11	MET793	0.000	
83	  CB	-57.620	0.672	-19.257	C.3	11	MET793	0.000	
84	  CG	-58.075	0.553	-20.694	C.3	11	MET793	0.000	
85	  SD	-59.810	0.930	-20.858	S.3	11	MET793	0.000	
86	  CE	-60.487	-0.702	-20.864	C.3	11	MET793	0.000	
87	   N	-57.381	2.737	-16.434	N.am	12	PRO794	0.000	
88	  CA	-56.645	3.043	-15.219	C.3	12	PRO794	0.000	
89	   C	-56.115	1.837	-14.480	C.2	12	PRO794	0.000	
90	   O	-55.024	1.899	-13.948	O.2	12	PRO794	0.000	
91	  CB	-57.681	3.766	-14.386	C.3	12	PRO794	0.000	
92	  CG	-58.463	4.505	-15.394	C.3	12	PRO794	0.000	
93	  CD	-58.586	3.568	-16.549	C.3	12	PRO794	0.000	
94	   N	-56.875	0.758	-14.440	N.am	13	PHE795	0.000	
95	  CA	-56.547	-0.361	-13.583	C.3	13	PHE795	0.000	
96	   C	-55.650	-1.388	-14.230	C.2	13	PHE795	0.000	
97	   O	-55.268	-2.360	-13.616	O.2	13	PHE795	0.000	
98	  CB	-57.821	-0.978	-13.057	C.3	13	PHE795	0.000	
99	  CG	-58.634	-0.029	-12.246	C.2	13	PHE795	0.000	
100	 CD1	-59.508	0.834	-12.851	C.2	13	PHE795	0.000	
101	 CD2	-58.494	0.019	-10.884	C.2	13	PHE795	0.000	
102	 CE1	-60.245	1.719	-12.110	C.2	13	PHE795	0.000	
103	 CE2	-59.226	0.900	-10.134	C.2	13	PHE795	0.000	
104	  CZ	-60.105	1.751	-10.748	C.2	13	PHE795	0.000	
105	   N	-55.313	-1.152	-15.480	N.am	14	GLY796	0.000	
106	  CA	-54.372	-1.996	-16.165	C.3	14	GLY796	0.000	
107	   C	-55.011	-3.235	-16.715	C.2	14	GLY796	0.000	
108	   O	-56.217	-3.363	-16.741	O.2	14	GLY796	0.000	
109	   N	-54.176	-4.148	-17.176	N.am	15	CYS797	0.000	
110	  CA	-54.644	-5.392	-17.732	C.3	15	CYS797	0.000	
111	   C	-55.215	-6.293	-16.667	C.2	15	CYS797	0.000	
112	   O	-54.796	-6.259	-15.526	O.2	15	CYS797	0.000	
113	  CB	-53.540	-6.079	-18.516	C.3	15	CYS797	0.000	
114	  SG	-52.579	-7.271	-17.605	S.3	15	CYS797	0.000	
115	   N	-53.003	-8.929	-14.580	N.am	16	ASP800	0.000	
116	  CA	-52.303	-8.342	-13.466	C.3	16	ASP800	0.000	
117	   C	-53.285	-8.101	-12.366	C.2	16	ASP800	0.000	
118	   O	-52.990	-8.305	-11.211	O.2	16	ASP800	0.000	
119	  CB	-51.698	-7.013	-13.867	C.3	16	ASP800	0.000	
120	  CG	-50.374	-7.165	-14.540	C.2	16	ASP800	0.000	
121	 OD1	-49.699	-6.148	-14.731	O.co2	16	ASP800	0.000	
122	 OD2	-50.002	-8.296	-14.876	O.co2	16	ASP800	0.000	
123	   N	-53.064	-9.259	-8.440	N.am	17	GLU804	0.000	
124	  CA	-52.986	-8.248	-7.395	C.3	17	GLU804	0.000	
125	   C	-54.134	-8.250	-6.412	C.2	17	GLU804	0.000	
126	   O	-53.926	-7.937	-5.258	O.2	17	GLU804	0.000	
127	  CB	-52.908	-6.851	-8.005	C.3	17	GLU804	0.000	
128	  CG	-51.554	-6.221	-7.969	C.3	17	GLU804	0.000	
129	  CD	-51.099	-5.817	-9.360	C.2	17	GLU804	0.000	
130	 OE1	-51.521	-4.724	-9.830	O.co2	17	GLU804	0.000	
131	 OE2	-50.342	-6.609	-9.984	O.2	17	GLU804	0.000	
132	   N	-58.327	-5.221	-20.750	N.am	18	LEU844	0.000	
133	  CA	-57.946	-4.090	-19.912	C.3	18	LEU844	0.000	
134	   C	-59.075	-3.611	-19.030	C.2	18	LEU844	0.000	
135	   O	-60.219	-3.688	-19.403	O.2	18	LEU844	0.000	
136	  CB	-57.434	-2.924	-20.746	C.3	18	LEU844	0.000	
137	  CG	-56.297	-3.115	-21.739	C.3	18	LEU844	0.000	
138	 CD1	-55.948	-1.765	-22.317	C.3	18	LEU844	0.000	
139	 CD2	-55.082	-3.736	-21.087	C.3	18	LEU844	0.000	
140	   N	-58.255	-5.898	-26.225	N.am	19	THR854	0.000	
141	  CA	-57.234	-5.082	-26.849	C.3	19	THR854	0.000	
142	   C	-56.187	-5.912	-27.556	C.2	19	THR854	0.000	
143	   O	-56.348	-7.102	-27.740	O.2	19	THR854	0.000	
144	  CB	-56.535	-4.174	-25.850	C.3	19	THR854	0.000	
145	 CG2	-55.925	-4.979	-24.764	C.3	19	THR854	0.000	
146	 OG1	-55.503	-3.454	-26.521	O.3	19	THR854	0.000	
147	   N	-55.117	-5.259	-27.976	N.am	20	ASP855	0.000	
148	  CA	-54.053	-5.921	-28.713	C.3	20	ASP855	0.000	
149	   C	-54.464	-6.588	-30.000	C.2	20	ASP855	0.000	
150	   O	-54.507	-7.794	-30.103	O.2	20	ASP855	0.000	
151	  CB	-53.275	-6.883	-27.843	C.3	20	ASP855	0.000	
152	  CG	-51.796	-6.686	-27.973	C.2	20	ASP855	0.000	
153	 OD1	-51.160	-7.450	-28.716	O.co2	20	ASP855	0.000	
154	 OD2	-51.268	-5.754	-27.343	O.co2	20	ASP855	0.000	
@<TRIPOS>BOND
1 1 2 1
2 2 3 1
3 2 5 1
4 3 4 2
5 5 6 1
6 6 7 1
7 6 8 1
8 9 10 1
9 10 11 1
10 10 13 1
11 11 12 2
12 13 14 1
13 13 15 1
14 16 17 1
15 17 18 1
16 17 20 1
17 18 19 2
18 21 22 1
19 22 23 1
20 22 25 1
21 23 24 2
22 25 26 1
23 26 27 1
24 27 28 1
25 28 29 1
26 30 31 1
27 31 32 1
28 31 34 1
29 32 33 2
30 34 35 1
31 35 36 1
32 36 37 2
33 36 38 1
34 39 40 1
35 40 41 1
36 40 43 1
37 41 42 2
38 43 44 1
39 44 45 1
40 45 46 1
41 47 48 1
42 48 49 1
43 48 51 1
44 49 50 2
45 51 52 1
46 52 53 1
47 52 54 1
48 55 56 1
49 56 57 1
50 56 59 1
51 57 58 2
52 57 62 1
53 59 60 1
54 59 61 1
55 62 63 1
56 63 64 1
57 63 66 1
58 64 65 2
59 64 71 1
60 66 67 1
61 67 68 1
62 68 69 1
63 68 70 2
64 71 72 1
65 72 73 1
66 72 75 1
67 73 74 2
68 73 79 1
69 75 76 1
70 76 77 1
71 76 78 1
72 79 80 1
73 80 81 1
74 80 83 1
75 81 82 2
76 81 87 1
77 83 84 1
78 84 85 1
79 85 86 1
80 87 88 1
81 87 93 1
82 88 89 1
83 88 91 1
84 89 90 2
85 89 94 1
86 91 92 1
87 92 93 1
88 94 95 1
89 95 96 1
90 95 98 1
91 96 97 2
92 96 105 1
93 98 99 1
94 99 100 2
95 99 101 1
96 100 102 1
97 101 103 2
98 102 104 2
99 103 104 1
100 105 106 1
101 106 107 1
102 107 108 2
103 107 109 1
104 109 110 1
105 110 111 1
106 110 113 1
107 111 112 2
108 113 114 1
109 115 116 1
110 116 117 1
111 116 119 1
112 117 118 2
113 119 120 1
114 120 121 2
115 120 122 1
116 123 124 1
117 124 125 1
118 124 127 1
119 125 126 2
120 127 128 1
121 128 129 1
122 129 130 2
123 129 131 1
124 132 133 1
125 133 134 1
126 133 136 1
127 134 135 2
128 136 137 1
129 137 138 1
130 137 139 1
131 140 141 1
132 141 142 1
133 141 144 1
134 142 143 2
135 142 147 1
136 144 145 1
137 144 146 1
138 147 148 1
139 148 149 1
140 148 151 1
141 149 150 2
142 151 152 1
143 152 153 2
144 152 154 1
@<TRIPOS>SUBSTRUCTURE
1	LEU718	1	RESIDUE	1 B	LEU
2	VAL726	9	RESIDUE	1 B	VAL
3	ALA743	16	RESIDUE	1 B	ALA
4	LYS745	21	RESIDUE	1 B	LYS
5	GLU762	30	RESIDUE	1 B	GLU
6	MET766	39	RESIDUE	1 B	MET
7	LEU788	47	RESIDUE	1 B	LEU
8	THR790	55	RESIDUE	1 B	THR
9	GLN791	62	RESIDUE	1 B	GLN
10	LEU792	71	RESIDUE	1 B	LEU
11	MET793	79	RESIDUE	1 B	MET
12	PRO794	87	RESIDUE	1 B	PRO
13	PHE795	94	RESIDUE	1 B	PHE
14	GLY796	105	RESIDUE	1 B	GLY
15	CYS797	109	RESIDUE	1 B	CYS
16	ASP800	115	RESIDUE	1 B	ASP
17	GLU804	123	RESIDUE	1 B	GLU
18	LEU844	132	RESIDUE	1 B	LEU
19	THR854	140	RESIDUE	1 B	THR
20	ASP855	147	RESIDUE	1 B	ASP
