# created with PyMOL 2.5.2
@<TRIPOS>MOLECULE
EGFR_5X26_TargetProtein
177 166 23              
SMALL
USER_CHARGES
@<TRIPOS>ATOM
1	   N	-46.199	3.489	-18.873	N.am	1	LEU718	0.000	
2	  CA	-47.037	2.447	-18.316	C.3	1	LEU718	0.000	
3	   C	-46.360	1.102	-18.380	C.2	1	LEU718	0.000	
4	   O	-46.333	0.361	-17.411	O.2	1	LEU718	0.000	
5	  CB	-48.359	2.389	-19.058	C.3	1	LEU718	0.000	
6	  CG	-49.291	3.540	-18.742	C.3	1	LEU718	0.000	
7	 CD1	-50.586	3.338	-19.492	C.3	1	LEU718	0.000	
8	 CD2	-49.535	3.611	-17.251	C.3	1	LEU718	0.000	
9	   N	-45.787	0.801	-19.532	N.am	2	GLY719	0.000	
10	  CA	-45.075	-0.439	-19.713	C.3	2	GLY719	0.000	
11	   C	-44.024	-0.302	-20.780	C.2	2	GLY719	0.000	
12	   O	-44.207	0.439	-21.733	O.2	2	GLY719	0.000	
13	   N	-45.399	1.920	-24.024	N.am	3	VAL726	0.000	
14	  CA	-46.690	2.584	-23.853	C.3	3	VAL726	0.000	
15	   C	-46.637	3.639	-22.753	C.2	3	VAL726	0.000	
16	   O	-46.217	3.344	-21.638	O.2	3	VAL726	0.000	
17	  CB	-47.806	1.593	-23.495	C.3	3	VAL726	0.000	
18	 CG1	-49.122	2.115	-23.999	C.3	3	VAL726	0.000	
19	 CG2	-47.534	0.217	-24.075	C.3	3	VAL726	0.000	
20	   N	-53.530	6.353	-23.429	N.am	4	ALA743	0.000	
21	  CA	-52.293	5.593	-23.542	C.3	4	ALA743	0.000	
22	   C	-51.714	5.840	-24.934	C.2	4	ALA743	0.000	
23	   O	-52.455	6.002	-25.915	O.2	4	ALA743	0.000	
24	  CB	-52.524	4.145	-23.304	C.3	4	ALA743	0.000	
25	   N	-48.873	4.408	-27.569	N.am	5	LYS745	0.000	
26	  CA	-47.977	3.318	-27.863	C.3	5	LYS745	0.000	
27	   C	-47.115	3.680	-29.039	C.2	5	LYS745	0.000	
28	   O	-47.616	4.022	-30.089	O.2	5	LYS745	0.000	
29	  CB	-48.766	2.062	-28.175	C.3	5	LYS745	0.000	
30	  CG	-48.049	1.106	-29.096	C.3	5	LYS745	0.000	
31	  CD	-48.175	-0.311	-28.592	C.3	5	LYS745	0.000	
32	  CE	-48.807	-1.205	-29.638	C.3	5	LYS745	0.000	
33	  NZ	-49.038	-2.580	-29.126	N.4	5	LYS745	0.000	
34	   N	-52.338	-2.556	-37.034	N.am	6	GLU762	0.000	
35	  CA	-53.003	-2.538	-35.735	C.3	6	GLU762	0.000	
36	   C	-53.940	-1.346	-35.579	C.2	6	GLU762	0.000	
37	   O	-55.117	-1.502	-35.288	O.2	6	GLU762	0.000	
38	  CB	-51.953	-2.536	-34.638	C.3	6	GLU762	0.000	
39	  CG	-52.504	-2.490	-33.256	C.3	6	GLU762	0.000	
40	  CD	-51.432	-2.741	-32.223	C.2	6	GLU762	0.000	
41	 OE1	-50.738	-1.773	-31.857	O.co2	6	GLU762	0.000	
42	 OE2	-51.274	-3.910	-31.787	O.co2	6	GLU762	0.000	
43	   N	-57.993	-1.167	-34.796	N.am	7	MET766	0.000	
44	  CA	-58.459	-0.370	-33.677	C.3	7	MET766	0.000	
45	   C	-59.271	0.856	-34.094	C.2	7	MET766	0.000	
46	   O	-60.114	1.347	-33.343	O.2	7	MET766	0.000	
47	  CB	-57.278	0.056	-32.838	C.3	7	MET766	0.000	
48	  CG	-57.187	-0.688	-31.560	C.3	7	MET766	0.000	
49	  SD	-56.070	0.121	-30.424	S.3	7	MET766	0.000	
50	  CE	-54.554	-0.274	-31.255	C.3	7	MET766	0.000	
51	   N	-49.800	5.332	-31.401	N.am	8	LEU788	0.000	
52	  CA	-51.217	5.073	-31.318	C.3	8	LEU788	0.000	
53	   C	-51.801	5.638	-30.056	C.2	8	LEU788	0.000	
54	   O	-51.339	5.364	-28.996	O.2	8	LEU788	0.000	
55	  CB	-51.450	3.582	-31.325	C.3	8	LEU788	0.000	
56	  CG	-51.487	2.964	-32.698	C.3	8	LEU788	0.000	
57	 CD1	-50.741	3.886	-33.608	C.3	8	LEU788	0.000	
58	 CD2	-50.815	1.627	-32.671	C.3	8	LEU788	0.000	
59	   N	-55.091	5.903	-27.636	N.am	9	THR790	0.000	
60	  CA	-56.324	5.280	-27.334	C.3	9	THR790	0.000	
61	   C	-56.628	5.622	-25.913	C.2	9	THR790	0.000	
62	   O	-55.829	6.196	-25.256	O.2	9	THR790	0.000	
63	  CB	-56.203	3.791	-27.547	C.3	9	THR790	0.000	
64	 CG2	-55.243	3.241	-26.590	C.3	9	THR790	0.000	
65	 OG1	-57.486	3.184	-27.382	O.3	9	THR790	0.000	
66	   N	-57.825	5.318	-25.465	N.am	10	GLN791	0.000	
67	  CA	-58.240	5.644	-24.134	C.3	10	GLN791	0.000	
68	   C	-57.491	4.828	-23.169	C.2	10	GLN791	0.000	
69	   O	-57.220	3.687	-23.402	O.2	10	GLN791	0.000	
70	  CB	-59.707	5.352	-23.949	C.3	10	GLN791	0.000	
71	  CG	-60.045	4.917	-22.546	C.3	10	GLN791	0.000	
72	  CD	-61.455	4.428	-22.380	C.2	10	GLN791	0.000	
73	 NE2	-62.267	5.186	-21.699	N.pl3	10	GLN791	0.000	
74	 OE1	-61.788	3.365	-22.826	O.2	10	GLN791	0.000	
75	   N	-57.188	5.433	-22.049	N.am	11	LEU792	0.000	
76	  CA	-56.424	4.803	-21.017	C.3	11	LEU792	0.000	
77	   C	-57.314	4.044	-20.140	C.2	11	LEU792	0.000	
78	   O	-58.387	4.473	-19.844	O.2	11	LEU792	0.000	
79	  CB	-55.792	5.863	-20.160	C.3	11	LEU792	0.000	
80	  CG	-55.202	5.438	-18.844	C.3	11	LEU792	0.000	
81	 CD1	-53.722	5.269	-18.991	C.3	11	LEU792	0.000	
82	 CD2	-55.460	6.528	-17.866	C.3	11	LEU792	0.000	
83	   N	-56.838	2.902	-19.701	N.am	12	MET793	0.000	
84	  CA	-57.561	2.099	-18.751	C.3	12	MET793	0.000	
85	   C	-56.792	2.147	-17.453	C.2	12	MET793	0.000	
86	   O	-55.697	1.634	-17.362	O.2	12	MET793	0.000	
87	  CB	-57.620	0.672	-19.257	C.3	12	MET793	0.000	
88	  CG	-58.075	0.553	-20.694	C.3	12	MET793	0.000	
89	  SD	-59.810	0.930	-20.858	S.3	12	MET793	0.000	
90	  CE	-60.487	-0.702	-20.864	C.3	12	MET793	0.000	
91	   N	-57.381	2.737	-16.434	N.am	13	PRO794	0.000	
92	  CA	-56.645	3.043	-15.219	C.3	13	PRO794	0.000	
93	   C	-56.115	1.837	-14.480	C.2	13	PRO794	0.000	
94	   O	-55.024	1.899	-13.948	O.2	13	PRO794	0.000	
95	  CB	-57.681	3.766	-14.386	C.3	13	PRO794	0.000	
96	  CG	-58.463	4.505	-15.394	C.3	13	PRO794	0.000	
97	  CD	-58.586	3.568	-16.549	C.3	13	PRO794	0.000	
98	   N	-56.875	0.758	-14.440	N.am	14	PHE795	0.000	
99	  CA	-56.547	-0.361	-13.583	C.3	14	PHE795	0.000	
100	   C	-55.650	-1.388	-14.230	C.2	14	PHE795	0.000	
101	   O	-55.268	-2.360	-13.616	O.2	14	PHE795	0.000	
102	  CB	-57.821	-0.978	-13.057	C.3	14	PHE795	0.000	
103	  CG	-58.634	-0.029	-12.246	C.2	14	PHE795	0.000	
104	 CD1	-59.508	0.834	-12.851	C.2	14	PHE795	0.000	
105	 CD2	-58.494	0.019	-10.884	C.2	14	PHE795	0.000	
106	 CE1	-60.245	1.719	-12.110	C.2	14	PHE795	0.000	
107	 CE2	-59.226	0.900	-10.134	C.2	14	PHE795	0.000	
108	  CZ	-60.105	1.751	-10.748	C.2	14	PHE795	0.000	
109	   N	-55.313	-1.152	-15.480	N.am	15	GLY796	0.000	
110	  CA	-54.372	-1.996	-16.165	C.3	15	GLY796	0.000	
111	   C	-55.011	-3.235	-16.715	C.2	15	GLY796	0.000	
112	   O	-56.217	-3.363	-16.741	O.2	15	GLY796	0.000	
113	   N	-54.176	-4.148	-17.176	N.am	16	CYS797	0.000	
114	  CA	-54.644	-5.392	-17.732	C.3	16	CYS797	0.000	
115	   C	-55.215	-6.293	-16.667	C.2	16	CYS797	0.000	
116	   O	-54.796	-6.259	-15.526	O.2	16	CYS797	0.000	
117	  CB	-53.540	-6.079	-18.516	C.3	16	CYS797	0.000	
118	  SG	-52.579	-7.271	-17.605	S.3	16	CYS797	0.000	
119	   N	-53.003	-8.929	-14.580	N.am	17	ASP800	0.000	
120	  CA	-52.303	-8.342	-13.466	C.3	17	ASP800	0.000	
121	   C	-53.285	-8.101	-12.366	C.2	17	ASP800	0.000	
122	   O	-52.990	-8.305	-11.211	O.2	17	ASP800	0.000	
123	  CB	-51.698	-7.013	-13.867	C.3	17	ASP800	0.000	
124	  CG	-50.374	-7.165	-14.540	C.2	17	ASP800	0.000	
125	 OD1	-49.699	-6.148	-14.731	O.co2	17	ASP800	0.000	
126	 OD2	-50.002	-8.296	-14.876	O.co2	17	ASP800	0.000	
127	   N	-53.064	-9.259	-8.440	N.am	18	GLU804	0.000	
128	  CA	-52.986	-8.248	-7.395	C.3	18	GLU804	0.000	
129	   C	-54.134	-8.250	-6.412	C.2	18	GLU804	0.000	
130	   O	-53.926	-7.937	-5.258	O.2	18	GLU804	0.000	
131	  CB	-52.908	-6.851	-8.005	C.3	18	GLU804	0.000	
132	  CG	-51.554	-6.221	-7.969	C.3	18	GLU804	0.000	
133	  CD	-51.099	-5.817	-9.360	C.2	18	GLU804	0.000	
134	 OE1	-51.521	-4.724	-9.830	O.co2	18	GLU804	0.000	
135	 OE2	-50.342	-6.609	-9.984	O.co2	18	GLU804	0.000	
136	   N	-54.078	-11.189	-20.376	N.am	19	ARG841	0.000	
137	  CA	-53.120	-10.081	-20.479	C.3	19	ARG841	0.000	
138	   C	-53.571	-9.022	-21.491	C.2	19	ARG841	0.000	
139	   O	-53.192	-7.843	-21.383	O.2	19	ARG841	0.000	
140	  CB	-51.737	-10.609	-20.857	C.3	19	ARG841	0.000	
141	  CG	-51.389	-10.485	-22.329	C.3	19	ARG841	0.000	
142	  CD	-50.145	-11.248	-22.689	C.3	19	ARG841	0.000	
143	  NE	-50.469	-12.619	-23.083	N.pl3	19	ARG841	0.000	
144	  CZ	-50.629	-13.022	-24.344	C.cat	19	ARG841	0.000	
145	 NH1	-50.486	-12.145	-25.345	N.pl3	19	ARG841	0.000	
146	 NH2	-50.919	-14.303	-24.616	N.pl3	19	ARG841	0.000	
147	   N	-54.393	-9.440	-22.452	N.am	20	ASN842	0.000	
148	  CA	-54.951	-8.523	-23.429	C.3	20	ASN842	0.000	
149	   C	-56.384	-8.079	-23.181	C.2	20	ASN842	0.000	
150	   O	-57.083	-7.665	-24.100	O.2	20	ASN842	0.000	
151	  CB	-54.850	-9.139	-24.800	C.3	20	ASN842	0.000	
152	  CG	-53.442	-9.217	-25.252	C.2	20	ASN842	0.000	
153	 ND2	-53.086	-10.299	-25.945	N.pl3	20	ASN842	0.000	
154	 OD1	-52.653	-8.314	-24.951	O.2	20	ASN842	0.000	
155	   N	-58.327	-5.221	-20.750	N.am	21	LEU844	0.000	
156	  CA	-57.946	-4.090	-19.912	C.3	21	LEU844	0.000	
157	   C	-59.075	-3.611	-19.030	C.2	21	LEU844	0.000	
158	   O	-60.219	-3.688	-19.403	O.2	21	LEU844	0.000	
159	  CB	-57.434	-2.924	-20.746	C.3	21	LEU844	0.000	
160	  CG	-56.297	-3.115	-21.739	C.3	21	LEU844	0.000	
161	 CD1	-55.948	-1.765	-22.317	C.3	21	LEU844	0.000	
162	 CD2	-55.082	-3.736	-21.087	C.3	21	LEU844	0.000	
163	   N	-58.255	-5.898	-26.225	N.am	22	THR854	0.000	
164	  CA	-57.234	-5.082	-26.849	C.3	22	THR854	0.000	
165	   C	-56.187	-5.912	-27.556	C.2	22	THR854	0.000	
166	   O	-56.348	-7.102	-27.740	O.2	22	THR854	0.000	
167	  CB	-56.535	-4.174	-25.850	C.3	22	THR854	0.000	
168	 CG2	-55.925	-4.979	-24.764	C.3	22	THR854	0.000	
169	 OG1	-55.503	-3.454	-26.521	O.3	22	THR854	0.000	
170	   N	-55.117	-5.259	-27.976	N.am	23	ASP855	0.000	
171	  CA	-54.053	-5.921	-28.713	C.3	23	ASP855	0.000	
172	   C	-54.464	-6.588	-30.000	C.2	23	ASP855	0.000	
173	   O	-54.507	-7.794	-30.103	O.2	23	ASP855	0.000	
174	  CB	-53.275	-6.883	-27.843	C.3	23	ASP855	0.000	
175	  CG	-51.796	-6.686	-27.973	C.2	23	ASP855	0.000	
176	 OD1	-51.160	-7.450	-28.716	O.co2	23	ASP855	0.000	
177	 OD2	-51.268	-5.754	-27.343	O.co2	23	ASP855	0.000	
@<TRIPOS>BOND
1 1 2 1
2 2 3 1
3 2 5 1
4 3 4 2
5 3 9 1
6 5 6 1
7 6 7 1
8 6 8 1
9 9 10 1
10 10 11 1
11 11 12 2
12 13 14 1
13 14 15 1
14 14 17 1
15 15 16 2
16 17 18 1
17 17 19 1
18 20 21 1
19 21 22 1
20 21 24 1
21 22 23 2
22 25 26 1
23 26 27 1
24 26 29 1
25 27 28 2
26 29 30 1
27 30 31 1
28 31 32 1
29 32 33 1
30 34 35 1
31 35 36 1
32 35 38 1
33 36 37 2
34 38 39 1
35 39 40 1
36 40 41 2
37 40 42 1
38 43 44 1
39 44 45 1
40 44 47 1
41 45 46 2
42 47 48 1
43 48 49 1
44 49 50 1
45 51 52 1
46 52 53 1
47 52 55 1
48 53 54 2
49 55 56 1
50 56 57 1
51 56 58 1
52 59 60 1
53 60 61 1
54 60 63 1
55 61 62 2
56 61 66 1
57 63 64 1
58 63 65 1
59 66 67 1
60 67 68 1
61 67 70 1
62 68 69 2
63 68 75 1
64 70 71 1
65 71 72 1
66 72 73 1
67 72 74 2
68 75 76 1
69 76 77 1
70 76 79 1
71 77 78 2
72 77 83 1
73 79 80 1
74 80 81 1
75 80 82 1
76 83 84 1
77 84 85 1
78 84 87 1
79 85 86 2
80 85 91 1
81 87 88 1
82 88 89 1
83 89 90 1
84 91 92 1
85 91 97 1
86 92 93 1
87 92 95 1
88 93 94 2
89 93 98 1
90 95 96 1
91 96 97 1
92 98 99 1
93 99 100 1
94 99 102 1
95 100 101 2
96 100 109 1
97 102 103 1
98 103 104 2
99 103 105 1
100 104 106 1
101 105 107 2
102 106 108 2
103 107 108 1
104 109 110 1
105 110 111 1
106 111 112 2
107 111 113 1
108 113 114 1
109 114 115 1
110 114 117 1
111 115 116 2
112 117 118 1
113 119 120 1
114 120 121 1
115 120 123 1
116 121 122 2
117 123 124 1
118 124 125 2
119 124 126 1
120 127 128 1
121 128 129 1
122 128 131 1
123 129 130 2
124 131 132 1
125 132 133 1
126 133 134 2
127 133 135 1
128 136 137 1
129 137 138 1
130 137 140 1
131 138 139 2
132 138 147 1
133 140 141 1
134 141 142 1
135 142 143 1
136 143 144 1
137 144 145 2
138 144 146 1
139 147 148 1
140 148 149 1
141 148 151 1
142 149 150 2
143 151 152 1
144 152 153 1
145 152 154 2
146 155 156 1
147 156 157 1
148 156 159 1
149 157 158 2
150 159 160 1
151 160 161 1
152 160 162 1
153 163 164 1
154 164 165 1
155 164 167 1
156 165 166 2
157 165 170 1
158 167 168 1
159 167 169 1
160 170 171 1
161 171 172 1
162 171 174 1
163 172 173 2
164 174 175 1
165 175 176 2
166 175 177 1
@<TRIPOS>SUBSTRUCTURE
1	LEU718	1	RESIDUE	1 B	LEU
2	GLY719	9	RESIDUE	1 B	GLY
3	VAL726	13	RESIDUE	1 B	VAL
4	ALA743	20	RESIDUE	1 B	ALA
5	LYS745	25	RESIDUE	1 B	LYS
6	GLU762	34	RESIDUE	1 B	GLU
7	MET766	43	RESIDUE	1 B	MET
8	LEU788	51	RESIDUE	1 B	LEU
9	THR790	59	RESIDUE	1 B	THR
10	GLN791	66	RESIDUE	1 B	GLN
11	LEU792	75	RESIDUE	1 B	LEU
12	MET793	83	RESIDUE	1 B	MET
13	PRO794	91	RESIDUE	1 B	PRO
14	PHE795	98	RESIDUE	1 B	PHE
15	GLY796	109	RESIDUE	1 B	GLY
16	CYS797	113	RESIDUE	1 B	CYS
17	ASP800	119	RESIDUE	1 B	ASP
18	GLU804	127	RESIDUE	1 B	GLU
19	ARG841	136	RESIDUE	1 B	ARG
20	ASN842	147	RESIDUE	1 B	ASN
21	LEU844	155	RESIDUE	1 B	LEU
22	THR854	163	RESIDUE	1 B	THR
23	ASP855	170	RESIDUE	1 B	ASP
