# created with PyMOL 2.5.2
@<TRIPOS>MOLECULE
SOS1_6D55_TargetProtein
144 135 17              
SMALL
USER_CHARGES
@<TRIPOS>ATOM
1	   N	26.803	37.507	18.158	N.am	1	VAL852	0.000	
2	  CA	27.681	37.028	19.230	C.3	1	VAL852	0.000	
3	   C	28.411	38.192	19.875	C.2	1	VAL852	0.000	
4	   O	28.517	38.291	21.108	O.2	1	VAL852	0.000	
5	  CB	28.656	35.976	18.682	C.3	1	VAL852	0.000	
6	 CG1	29.732	35.639	19.727	C.3	1	VAL852	0.000	
7	 CG2	27.843	34.705	18.266	C.3	1	VAL852	0.000	
8	   N	28.417	39.361	23.883	N.am	2	ILE856	0.000	
9	  CA	29.593	39.566	24.725	C.3	2	ILE856	0.000	
10	   C	29.662	41.004	25.264	C.2	2	ILE856	0.000	
11	   O	30.143	41.226	26.397	O.2	2	ILE856	0.000	
12	  CB	30.858	39.156	23.935	C.3	2	ILE856	0.000	
13	 CG1	30.817	37.648	23.638	C.3	2	ILE856	0.000	
14	 CG2	32.121	39.466	24.801	C.3	2	ILE856	0.000	
15	 CD1	32.026	37.137	22.711	C.3	2	ILE856	0.000	
16	   N	27.771	32.920	29.720	N.am	3	VAL875	0.000	
17	  CA	28.791	31.850	29.620	C.3	3	VAL875	0.000	
18	   C	28.139	30.515	29.263	C.2	3	VAL875	0.000	
19	   O	28.648	29.789	28.388	O.2	3	VAL875	0.000	
20	  CB	29.560	31.761	30.944	C.3	3	VAL875	0.000	
21	 CG1	30.411	30.466	31.051	C.3	3	VAL875	0.000	
22	 CG2	30.413	33.051	31.148	C.3	3	VAL875	0.000	
23	   N	27.320	30.467	25.563	N.am	4	MET878	0.000	
24	  CA	28.497	30.378	24.680	C.3	4	MET878	0.000	
25	   C	29.193	29.025	24.782	C.2	4	MET878	0.000	
26	   O	29.894	28.616	23.837	O.2	4	MET878	0.000	
27	  CB	29.517	31.498	25.035	C.3	4	MET878	0.000	
28	  CG	28.986	32.960	24.747	C.3	4	MET878	0.000	
29	  SD	28.294	33.123	23.072	S.3	4	MET878	0.000	
30	  CE	29.764	32.655	22.053	C.3	4	MET878	0.000	
31	   N	29.006	28.299	25.888	N.am	5	ASN879	0.000	
32	  CA	29.618	26.979	26.023	C.3	5	ASN879	0.000	
33	   C	28.662	25.855	25.678	C.2	5	ASN879	0.000	
34	   O	29.019	24.673	25.813	O.2	5	ASN879	0.000	
35	  CB	30.140	26.819	27.472	C.3	5	ASN879	0.000	
36	  CG	31.622	26.431	27.530	C.2	5	ASN879	0.000	
37	 ND2	32.077	26.083	28.723	N.pl3	5	ASN879	0.000	
38	 OD1	32.298	26.330	26.518	O.2	5	ASN879	0.000	
39	   N	26.332	26.349	20.185	N.am	6	VAL883	0.000	
40	  CA	27.107	27.553	19.929	C.3	6	VAL883	0.000	
41	   C	28.593	27.241	19.892	C.2	6	VAL883	0.000	
42	   O	29.333	27.812	19.082	O.2	6	VAL883	0.000	
43	  CB	26.799	28.616	21.020	C.3	6	VAL883	0.000	
44	 CG1	27.747	29.855	20.837	C.3	6	VAL883	0.000	
45	 CG2	25.311	29.026	20.933	C.3	6	VAL883	0.000	
46	   N	29.043	26.348	20.798	N.am	7	TYR884	0.000	
47	  CA	30.479	26.119	20.974	C.3	7	TYR884	0.000	
48	   C	31.147	25.735	19.653	C.2	7	TYR884	0.000	
49	   O	32.294	26.141	19.364	O.2	7	TYR884	0.000	
50	  CB	30.705	25.012	22.033	C.3	7	TYR884	0.000	
51	  CG	32.171	24.793	22.357	C.2	7	TYR884	0.000	
52	 CD1	32.929	23.866	21.618	C.2	7	TYR884	0.000	
53	 CD2	32.796	25.495	23.394	C.2	7	TYR884	0.000	
54	 CE1	34.294	23.653	21.901	C.2	7	TYR884	0.000	
55	 CE2	34.165	25.300	23.666	C.2	7	TYR884	0.000	
56	  CZ	34.885	24.359	22.912	C.2	7	TYR884	0.000	
57	  OH	36.242	24.182	23.191	O.3	7	TYR884	0.000	
58	   N	30.668	26.523	16.599	N.am	8	LEU886	0.000	
59	  CA	30.601	27.414	15.421	C.3	8	LEU886	0.000	
60	   C	31.957	28.066	15.168	C.2	8	LEU886	0.000	
61	   O	32.165	29.263	15.347	O.2	8	LEU886	0.000	
62	  CB	29.534	28.486	15.625	C.3	8	LEU886	0.000	
63	  CG	28.126	27.865	15.757	C.3	8	LEU886	0.000	
64	 CD1	27.168	29.013	16.168	C.3	8	LEU886	0.000	
65	 CD2	27.607	27.218	14.480	C.3	8	LEU886	0.000	
66	   N	32.885	27.252	14.658	N.am	9	ASP887	0.000	
67	  CA	34.245	27.719	14.450	C.3	9	ASP887	0.000	
68	   C	34.324	28.902	13.501	C.2	9	ASP887	0.000	
69	   O	35.219	29.738	13.671	O.2	9	ASP887	0.000	
70	  CB	35.110	26.593	13.872	C.3	9	ASP887	0.000	
71	  CG	35.302	25.422	14.846	C.2	9	ASP887	0.000	
72	 OD1	35.075	25.596	16.067	O.co2	9	ASP887	0.000	
73	 OD2	35.697	24.337	14.365	O.co2	9	ASP887	0.000	
74	   N	32.255	31.369	13.138	N.am	10	THR889	0.000	
75	  CA	31.847	32.545	13.884	C.3	10	THR889	0.000	
76	   C	32.934	32.928	14.878	C.2	10	THR889	0.000	
77	   O	33.313	34.101	14.978	O.2	10	THR889	0.000	
78	  CB	30.522	32.202	14.592	C.3	10	THR889	0.000	
79	 CG2	29.886	33.408	15.299	C.3	10	THR889	0.000	
80	 OG1	29.577	31.729	13.605	O.3	10	THR889	0.000	
81	   N	33.459	31.916	15.590	N.am	11	PHE890	0.000	
82	  CA	34.565	32.088	16.524	C.3	11	PHE890	0.000	
83	   C	35.716	32.825	15.881	C.2	11	PHE890	0.000	
84	   O	36.294	33.734	16.485	O.2	11	PHE890	0.000	
85	  CB	34.996	30.704	17.046	C.3	11	PHE890	0.000	
86	  CG	36.182	30.739	17.957	C.2	11	PHE890	0.000	
87	 CD1	37.456	30.625	17.430	C.2	11	PHE890	0.000	
88	 CD2	36.014	30.818	19.344	C.2	11	PHE890	0.000	
89	 CE1	38.572	30.663	18.229	C.2	11	PHE890	0.000	
90	 CE2	37.126	30.869	20.187	C.2	11	PHE890	0.000	
91	  CZ	38.431	30.772	19.617	C.2	11	PHE890	0.000	
92	   N	35.397	36.730	15.878	N.am	12	ILE893	0.000	
93	  CA	35.197	37.544	17.082	C.3	12	ILE893	0.000	
94	   C	36.535	38.171	17.488	C.2	12	ILE893	0.000	
95	   O	37.541	37.449	17.586	O.2	12	ILE893	0.000	
96	  CB	34.633	36.672	18.214	C.3	12	ILE893	0.000	
97	 CG1	33.232	36.158	17.791	C.3	12	ILE893	0.000	
98	 CG2	34.534	37.492	19.509	C.3	12	ILE893	0.000	
99	 CD1	32.185	37.288	17.578	C.3	12	ILE893	0.000	
100	   N	37.047	37.887	22.931	N.am	13	LYS898	0.000	
101	  CA	37.393	36.552	23.426	C.3	13	LYS898	0.000	
102	   C	37.959	36.646	24.821	C.2	13	LYS898	0.000	
103	   O	37.723	35.757	25.656	O.2	13	LYS898	0.000	
104	  CB	38.393	35.869	22.510	C.3	13	LYS898	0.000	
105	  CG	37.737	35.515	21.165	C.3	13	LYS898	0.000	
106	  CD	38.726	34.816	20.226	C.3	13	LYS898	0.000	
107	  CE	37.984	34.382	18.936	C.3	13	LYS898	0.000	
108	  NZ	39.008	34.211	17.854	N.4	13	LYS898	0.000	
109	   N	35.163	37.035	27.362	N.am	14	LEU901	0.000	
110	  CA	34.450	35.781	27.604	C.3	14	LEU901	0.000	
111	   C	35.328	34.817	28.403	C.2	14	LEU901	0.000	
112	   O	34.835	34.122	29.297	O.2	14	LEU901	0.000	
113	  CB	34.022	35.166	26.248	C.3	14	LEU901	0.000	
114	  CG	33.300	33.804	26.370	C.3	14	LEU901	0.000	
115	 CD1	31.951	33.991	27.078	C.3	14	LEU901	0.000	
116	 CD2	33.005	33.294	24.911	C.3	14	LEU901	0.000	
117	   N	36.630	34.791	28.115	N.am	15	GLU902	0.000	
118	  CA	37.549	33.925	28.854	C.3	15	GLU902	0.000	
119	   C	37.557	34.285	30.331	C.2	15	GLU902	0.000	
120	   O	37.462	33.403	31.197	O.2	15	GLU902	0.000	
121	  CB	38.967	34.083	28.285	C.3	15	GLU902	0.000	
122	  CG	40.070	33.407	29.139	C.3	15	GLU902	0.000	
123	  CD	39.980	31.885	29.168	C.2	15	GLU902	0.000	
124	 OE1	39.453	31.307	28.213	O.co2	15	GLU902	0.000	
125	 OE2	40.449	31.269	30.148	O.co2	15	GLU902	0.000	
126	   N	34.384	33.041	31.894	N.am	16	HIS905	0.000	
127	  CA	34.391	31.594	32.125	C.3	16	HIS905	0.000	
128	   C	35.353	31.210	33.246	C.2	16	HIS905	0.000	
129	   O	35.065	30.255	34.013	O.2	16	HIS905	0.000	
130	  CB	34.772	30.862	30.793	C.3	16	HIS905	0.000	
131	  CG	34.683	29.365	30.920	C.2	16	HIS905	0.000	
132	 CD2	33.629	28.522	30.758	C.2	16	HIS905	0.000	
133	 ND1	35.742	28.586	31.351	N.pl3	16	HIS905	0.000	
134	 CE1	35.347	27.320	31.425	C.2	16	HIS905	0.000	
135	 NE2	34.070	27.251	31.076	N.pl3	16	HIS905	0.000	
136	   N	35.756	28.171	36.777	N.am	17	GLU909	0.000	
137	  CA	36.762	27.104	36.808	C.3	17	GLU909	0.000	
138	   C	37.119	26.728	38.243	C.2	17	GLU909	0.000	
139	   O	36.895	27.484	39.199	O.2	17	GLU909	0.000	
140	  CB	37.994	27.543	36.001	C.3	17	GLU909	0.000	
141	  CG	37.616	27.653	34.484	C.3	17	GLU909	0.000	
142	  CD	38.683	28.306	33.588	C.2	17	GLU909	0.000	
143	 OE1	39.848	28.389	34.031	O.co2	17	GLU909	0.000	
144	 OE2	38.346	28.746	32.424	O.co2	17	GLU909	0.000	
@<TRIPOS>BOND
1 1 2 1
2 2 3 1
3 2 5 1
4 3 4 2
5 5 6 1
6 5 7 1
7 8 9 1
8 9 10 1
9 9 12 1
10 10 11 2
11 12 13 1
12 12 14 1
13 13 15 1
14 16 17 1
15 17 18 1
16 17 20 1
17 18 19 2
18 20 21 1
19 20 22 1
20 23 24 1
21 24 25 1
22 24 27 1
23 25 26 2
24 25 31 1
25 27 28 1
26 28 29 1
27 29 30 1
28 31 32 1
29 32 33 1
30 32 35 1
31 33 34 2
32 35 36 1
33 36 37 1
34 36 38 2
35 39 40 1
36 40 41 1
37 40 43 1
38 41 42 2
39 41 46 1
40 43 44 1
41 43 45 1
42 46 47 1
43 47 48 1
44 47 50 1
45 48 49 2
46 50 51 1
47 51 52 2
48 51 53 1
49 52 54 1
50 53 55 2
51 54 56 2
52 55 56 1
53 56 57 1
54 58 59 1
55 59 60 1
56 59 62 1
57 60 61 2
58 60 66 1
59 62 63 1
60 63 64 1
61 63 65 1
62 66 67 1
63 67 68 1
64 67 70 1
65 68 69 2
66 70 71 1
67 71 72 2
68 71 73 1
69 74 75 1
70 75 76 1
71 75 78 1
72 76 77 2
73 76 81 1
74 78 79 1
75 78 80 1
76 81 82 1
77 82 83 1
78 82 85 1
79 83 84 2
80 85 86 1
81 86 87 2
82 86 88 1
83 87 89 1
84 88 90 2
85 89 91 2
86 90 91 1
87 92 93 1
88 93 94 1
89 93 96 1
90 94 95 2
91 96 97 1
92 96 98 1
93 97 99 1
94 100 101 1
95 101 102 1
96 101 104 1
97 102 103 2
98 104 105 1
99 105 106 1
100 106 107 1
101 107 108 1
102 109 110 1
103 110 111 1
104 110 113 1
105 111 112 2
106 111 117 1
107 113 114 1
108 114 115 1
109 114 116 1
110 117 118 1
111 118 119 1
112 118 121 1
113 119 120 2
114 121 122 1
115 122 123 1
116 123 124 2
117 123 125 1
118 126 127 1
119 127 128 1
120 127 130 1
121 128 129 2
122 130 131 1
123 131 132 2
124 131 133 1
125 132 135 1
126 133 134 2
127 134 135 1
128 136 137 1
129 137 138 1
130 137 140 1
131 138 139 2
132 140 141 1
133 141 142 1
134 142 143 2
135 142 144 1
@<TRIPOS>SUBSTRUCTURE
1	VAL852	1	RESIDUE	1 B	VAL
2	ILE856	8	RESIDUE	1 B	ILE
3	VAL875	16	RESIDUE	1 B	VAL
4	MET878	23	RESIDUE	1 B	MET
5	ASN879	31	RESIDUE	1 B	ASN
6	VAL883	39	RESIDUE	1 B	VAL
7	TYR884	46	RESIDUE	1 B	TYR
8	LEU886	58	RESIDUE	1 B	LEU
9	ASP887	66	RESIDUE	1 B	ASP
10	THR889	74	RESIDUE	1 B	THR
11	PHE890	81	RESIDUE	1 B	PHE
12	ILE893	92	RESIDUE	1 B	ILE
13	LYS898	100	RESIDUE	1 B	LYS
14	LEU901	109	RESIDUE	1 B	LEU
15	GLU902	117	RESIDUE	1 B	GLU
16	HIS905	126	RESIDUE	1 B	HIS
17	GLU909	136	RESIDUE	1 B	GLU
