# created with PyMOL 2.5.2
@<TRIPOS>MOLECULE
CDK2_6GUE_TargetProtein
165 158 20              
SMALL
USER_CHARGES
@<TRIPOS>ATOM
1	   N	-2.415	-20.009	28.287	N.am	1	ILE10	0.000	
2	  CA	-2.483	-21.249	27.490	C.3	1	ILE10	0.000	
3	   C	-1.869	-21.167	26.084	C.2	1	ILE10	0.000	
4	   O	-1.822	-22.196	25.391	O.2	1	ILE10	0.000	
5	  CB	-3.952	-21.816	27.419	C.3	1	ILE10	0.000	
6	 CG1	-4.921	-20.787	26.821	C.3	1	ILE10	0.000	
7	 CG2	-4.411	-22.324	28.778	C.3	1	ILE10	0.000	
8	 CD1	-6.393	-21.146	26.966	C.3	1	ILE10	0.000	
9	   N	-1.406	-19.999	25.635	N.am	2	GLY11	0.000	
10	  CA	-1.103	-19.858	24.202	C.3	2	GLY11	0.000	
11	   C	-0.664	-18.458	23.853	C.2	2	GLY11	0.000	
12	   O	-0.963	-17.501	24.588	O.2	2	GLY11	0.000	
13	   N	-0.421	-12.538	17.202	N.am	3	TYR15	0.000	
14	  CA	-1.774	-12.064	17.593	C.3	3	TYR15	0.000	
15	   C	-1.888	-11.448	19.023	C.2	3	TYR15	0.000	
16	   O	-2.635	-10.482	19.267	O.2	3	TYR15	0.000	
17	  CB	-2.788	-13.229	17.463	C.3	3	TYR15	0.000	
18	  CG	-2.473	-14.468	18.313	C.2	3	TYR15	0.000	
19	 CD1	-2.745	-14.508	19.691	C.2	3	TYR15	0.000	
20	 CD2	-1.951	-15.625	17.734	C.2	3	TYR15	0.000	
21	 CE1	-2.456	-15.646	20.463	C.2	3	TYR15	0.000	
22	 CE2	-1.691	-16.770	18.506	C.2	3	TYR15	0.000	
23	  CZ	-1.937	-16.757	19.870	C.2	3	TYR15	0.000	
24	  OH	-1.681	-17.831	20.660	O.3	3	TYR15	0.000	
25	   N	-3.215	-15.761	25.061	N.am	4	VAL18	0.000	
26	  CA	-4.473	-16.340	25.422	C.3	4	VAL18	0.000	
27	   C	-4.348	-16.884	26.799	C.2	4	VAL18	0.000	
28	   O	-3.408	-17.625	27.050	O.2	4	VAL18	0.000	
29	  CB	-4.855	-17.498	24.452	C.3	4	VAL18	0.000	
30	 CG1	-6.230	-18.039	24.790	C.3	4	VAL18	0.000	
31	 CG2	-4.842	-16.981	23.033	C.3	4	VAL18	0.000	
32	   N	-11.646	-18.810	27.324	N.am	5	ALA31	0.000	
33	  CA	-10.346	-18.326	26.911	C.3	5	ALA31	0.000	
34	   C	-10.425	-16.815	26.589	C.2	5	ALA31	0.000	
35	   O	-11.336	-16.375	25.889	O.2	5	ALA31	0.000	
36	  CB	-9.893	-19.089	25.696	C.3	5	ALA31	0.000	
37	   N	-8.436	-13.674	24.971	N.am	6	LYS33	0.000	
38	  CA	-7.306	-13.300	24.099	C.3	6	LYS33	0.000	
39	   C	-7.207	-11.783	24.175	C.2	6	LYS33	0.000	
40	   O	-8.158	-11.061	23.837	O.2	6	LYS33	0.000	
41	  CB	-7.496	-13.767	22.651	C.3	6	LYS33	0.000	
42	  CG	-6.308	-13.480	21.745	C.3	6	LYS33	0.000	
43	  CD	-6.661	-13.511	20.257	C.3	6	LYS33	0.000	
44	  CE	-6.688	-14.888	19.713	C.3	6	LYS33	0.000	
45	  NZ	-7.570	-15.224	18.546	N.4	6	LYS33	0.000	
46	   N	-15.083	-22.637	17.115	N.am	7	VAL64	0.000	
47	  CA	-14.934	-22.027	18.427	C.3	7	VAL64	0.000	
48	   C	-15.852	-20.793	18.565	C.2	7	VAL64	0.000	
49	   O	-15.933	-19.950	17.665	O.2	7	VAL64	0.000	
50	  CB	-13.467	-21.627	18.659	C.3	7	VAL64	0.000	
51	 CG1	-13.063	-20.454	17.728	C.3	7	VAL64	0.000	
52	 CG2	-13.249	-21.297	20.103	C.3	7	VAL64	0.000	
53	   N	-13.689	-16.295	24.390	N.am	8	PHE80	0.000	
54	  CA	-14.152	-17.518	23.721	C.3	8	PHE80	0.000	
55	   C	-14.618	-18.588	24.716	C.2	8	PHE80	0.000	
56	   O	-14.144	-18.598	25.861	O.2	8	PHE80	0.000	
57	  CB	-12.999	-18.162	22.936	C.3	8	PHE80	0.000	
58	  CG	-12.395	-17.305	21.862	C.2	8	PHE80	0.000	
59	 CD1	-12.882	-17.314	20.576	C.2	8	PHE80	0.000	
60	 CD2	-11.317	-16.449	22.158	C.2	8	PHE80	0.000	
61	 CE1	-12.299	-16.559	19.565	C.2	8	PHE80	0.000	
62	 CE2	-10.726	-15.683	21.152	C.2	8	PHE80	0.000	
63	  CZ	-11.233	-15.758	19.843	C.2	8	PHE80	0.000	
64	   N	-15.478	-19.494	24.294	N.am	9	GLU81	0.000	
65	  CA	-15.678	-20.742	25.040	C.3	9	GLU81	0.000	
66	   C	-14.308	-21.433	25.184	C.2	9	GLU81	0.000	
67	   O	-13.491	-21.366	24.284	O.2	9	GLU81	0.000	
68	  CB	-16.649	-21.701	24.359	C.3	9	GLU81	0.000	
69	  CG	-16.131	-22.175	23.000	C.3	9	GLU81	0.000	
70	  CD	-16.943	-23.299	22.359	C.2	9	GLU81	0.000	
71	 OE1	-17.215	-24.310	23.028	O.co2	9	GLU81	0.000	
72	 OE2	-17.257	-23.215	21.151	O.co2	9	GLU81	0.000	
73	   N	-14.038	-22.012	26.345	N.am	10	PHE82	0.000	
74	  CA	-12.793	-22.676	26.632	C.3	10	PHE82	0.000	
75	   C	-12.760	-24.077	26.048	C.2	10	PHE82	0.000	
76	   O	-13.688	-24.830	26.253	O.2	10	PHE82	0.000	
77	  CB	-12.554	-22.786	28.117	C.3	10	PHE82	0.000	
78	  CG	-11.210	-23.425	28.479	C.2	10	PHE82	0.000	
79	 CD1	-10.020	-22.762	28.227	C.2	10	PHE82	0.000	
80	 CD2	-11.152	-24.718	28.999	C.2	10	PHE82	0.000	
81	 CE1	-8.794	-23.356	28.563	C.2	10	PHE82	0.000	
82	 CE2	-9.909	-25.297	29.333	C.2	10	PHE82	0.000	
83	  CZ	-8.759	-24.631	29.113	C.2	10	PHE82	0.000	
84	   N	-11.712	-24.402	25.294	N.am	11	LEU83	0.000	
85	  CA	-11.437	-25.795	24.948	C.3	11	LEU83	0.000	
86	   C	-10.121	-26.209	25.611	C.2	11	LEU83	0.000	
87	   O	-9.271	-25.375	25.817	O.2	11	LEU83	0.000	
88	  CB	-11.378	-25.927	23.451	C.3	11	LEU83	0.000	
89	  CG	-12.831	-25.733	22.947	C.3	11	LEU83	0.000	
90	 CD1	-13.061	-24.649	21.967	C.3	11	LEU83	0.000	
91	 CD2	-13.352	-26.997	22.355	C.3	11	LEU83	0.000	
92	   N	-9.966	-27.495	25.919	N.am	12	HIE84	0.000	
93	  CA	-8.930	-27.982	26.828	C.3	12	HIE84	0.000	
94	   C	-7.541	-28.016	26.203	C.2	12	HIE84	0.000	
95	   O	-6.583	-27.715	26.868	O.2	12	HIE84	0.000	
96	  CB	-9.362	-29.336	27.449	C.3	12	HIE84	0.000	
97	  CG	-10.637	-29.206	28.252	C.2	12	HIE84	0.000	
98	 CD2	-10.825	-29.102	29.595	C.2	12	HIE84	0.000	
99	 ND1	-11.904	-29.049	27.675	N.2	12	HIE84	0.000	
100	 CE1	-12.794	-28.851	28.629	C.2	12	HIE84	0.000	
101	 NE2	-12.174	-28.888	29.800	N.pl3	12	HIE84	0.000	
102	   N	-7.428	-28.375	24.945	N.am	13	GLN85	0.000	
103	  CA	-6.129	-28.505	24.296	C.3	13	GLN85	0.000	
104	   C	-6.221	-28.532	22.799	C.2	13	GLN85	0.000	
105	   O	-7.313	-28.640	22.247	O.2	13	GLN85	0.000	
106	  CB	-5.313	-29.675	24.835	C.3	13	GLN85	0.000	
107	  CG	-5.644	-31.038	24.401	C.3	13	GLN85	0.000	
108	  CD	-4.686	-32.087	25.074	C.2	13	GLN85	0.000	
109	 NE2	-4.587	-33.243	24.489	N.pl3	13	GLN85	0.000	
110	 OE1	-4.089	-31.834	26.124	O.2	13	GLN85	0.000	
111	   N	-5.079	-28.332	22.148	N.am	14	ASP86	0.000	
112	  CA	-4.998	-28.439	20.710	C.3	14	ASP86	0.000	
113	   C	-4.716	-29.853	20.273	C.2	14	ASP86	0.000	
114	   O	-4.292	-30.659	21.064	O.2	14	ASP86	0.000	
115	  CB	-4.108	-27.369	20.111	C.3	14	ASP86	0.000	
116	  CG	-2.598	-27.566	20.372	C.2	14	ASP86	0.000	
117	 OD1	-2.118	-28.665	20.383	O.co2	14	ASP86	0.000	
118	 OD2	-1.853	-26.589	20.381	O.co2	14	ASP86	0.000	
119	   N	-1.091	-31.207	20.773	N.am	15	LYS89	0.000	
120	  CA	-0.832	-31.777	22.098	C.3	15	LYS89	0.000	
121	   C	-1.376	-33.130	22.256	C.2	15	LYS89	0.000	
122	   O	-0.757	-33.986	22.837	O.2	15	LYS89	0.000	
123	  CB	-1.297	-30.859	23.236	C.3	15	LYS89	0.000	
124	  CG	-0.477	-29.550	23.162	C.3	15	LYS89	0.000	
125	  CD	-0.093	-28.881	24.520	C.3	15	LYS89	0.000	
126	  CE	0.081	-29.775	25.753	C.3	15	LYS89	0.000	
127	  NZ	-1.209	-30.228	26.347	N.4	15	LYS89	0.000	
128	   N	-2.402	-26.956	15.696	N.am	16	GLN131	0.000	
129	  CA	-2.440	-25.991	16.749	C.3	16	GLN131	0.000	
130	   C	-3.730	-25.140	16.782	C.2	16	GLN131	0.000	
131	   O	-4.048	-24.578	17.848	O.2	16	GLN131	0.000	
132	  CB	-1.203	-25.090	16.771	C.3	16	GLN131	0.000	
133	  CG	0.125	-25.883	16.949	C.3	16	GLN131	0.000	
134	  CD	0.718	-26.620	15.678	C.2	16	GLN131	0.000	
135	 NE2	1.784	-27.376	15.951	N.pl3	16	GLN131	0.000	
136	 OE1	0.229	-26.561	14.502	O.2	16	GLN131	0.000	
137	   N	-4.446	-25.055	15.654	N.am	17	ASN132	0.000	
138	  CA	-5.722	-24.273	15.540	C.3	17	ASN132	0.000	
139	   C	-7.014	-25.114	15.604	C.2	17	ASN132	0.000	
140	   O	-8.111	-24.585	15.376	O.2	17	ASN132	0.000	
141	  CB	-5.711	-23.453	14.238	C.3	17	ASN132	0.000	
142	  CG	-4.712	-22.316	14.287	C.2	17	ASN132	0.000	
143	 ND2	-4.286	-21.790	13.100	N.pl3	17	ASN132	0.000	
144	 OD1	-4.324	-21.925	15.389	O.2	17	ASN132	0.000	
145	   N	-9.043	-27.299	18.149	N.am	18	LEU134	0.000	
146	  CA	-9.134	-27.487	19.596	C.3	18	LEU134	0.000	
147	   C	-10.137	-28.567	20.021	C.2	18	LEU134	0.000	
148	   O	-11.234	-28.641	19.474	O.2	18	LEU134	0.000	
149	  CB	-9.519	-26.162	20.206	C.3	18	LEU134	0.000	
150	  CG	-8.590	-25.016	19.832	C.3	18	LEU134	0.000	
151	 CD1	-8.983	-23.734	20.567	C.3	18	LEU134	0.000	
152	 CD2	-7.111	-25.320	20.049	C.3	18	LEU134	0.000	
153	   N	-10.430	-23.071	15.301	N.am	19	ALA144	0.000	
154	  CA	-10.127	-21.851	16.002	C.3	19	ALA144	0.000	
155	   C	-9.062	-20.991	15.241	C.2	19	ALA144	0.000	
156	   O	-8.527	-21.347	14.214	O.2	19	ALA144	0.000	
157	  CB	-9.644	-22.163	17.419	C.3	19	ALA144	0.000	
158	   N	-8.860	-19.814	15.798	N.am	20	ASP145	0.000	
159	  CA	-7.994	-18.753	15.251	C.3	20	ASP145	0.000	
160	   C	-8.303	-18.322	13.829	C.2	20	ASP145	0.000	
161	   O	-7.679	-18.779	12.888	O.2	20	ASP145	0.000	
162	  CB	-6.528	-19.097	15.387	C.3	20	ASP145	0.000	
163	  CG	-5.637	-17.793	15.286	C.2	20	ASP145	0.000	
164	 OD1	-6.168	-16.735	14.816	O.co2	20	ASP145	0.000	
165	 OD2	-4.444	-17.856	15.648	O.co2	20	ASP145	0.000	
@<TRIPOS>BOND
1 1 2 1
2 2 3 1
3 2 5 1
4 3 4 2
5 3 9 1
6 5 6 1
7 5 7 1
8 6 8 1
9 9 10 1
10 10 11 1
11 11 12 2
12 13 14 1
13 14 15 1
14 14 17 1
15 15 16 2
16 17 18 1
17 18 19 2
18 18 20 1
19 19 21 1
20 20 22 2
21 21 23 2
22 22 23 1
23 23 24 1
24 25 26 1
25 26 27 1
26 26 29 1
27 27 28 2
28 29 30 1
29 29 31 1
30 32 33 1
31 33 34 1
32 33 36 1
33 34 35 2
34 37 38 1
35 38 39 1
36 38 41 1
37 39 40 2
38 41 42 1
39 42 43 1
40 43 44 1
41 44 45 1
42 46 47 1
43 47 48 1
44 47 50 1
45 48 49 2
46 50 51 1
47 50 52 1
48 53 54 1
49 54 55 1
50 54 57 1
51 55 56 2
52 55 64 1
53 57 58 1
54 58 59 2
55 58 60 1
56 59 61 1
57 60 62 2
58 61 63 2
59 62 63 1
60 64 65 1
61 65 66 1
62 65 68 1
63 66 67 2
64 66 73 1
65 68 69 1
66 69 70 1
67 70 71 2
68 70 72 1
69 73 74 1
70 74 75 1
71 74 77 1
72 75 76 2
73 75 84 1
74 77 78 1
75 78 79 2
76 78 80 1
77 79 81 1
78 80 82 2
79 81 83 2
80 82 83 1
81 84 85 1
82 85 86 1
83 85 88 1
84 86 87 2
85 86 92 1
86 88 89 1
87 89 90 1
88 89 91 1
89 92 93 1
90 93 94 1
91 93 96 1
92 94 95 2
93 94 102 1
94 96 97 1
95 97 98 2
96 97 99 1
97 98 101 1
98 99 100 2
99 100 101 1
100 102 103 1
101 103 104 1
102 103 106 1
103 104 105 2
104 104 111 1
105 106 107 1
106 107 108 1
107 108 109 1
108 108 110 2
109 111 112 1
110 112 113 1
111 112 115 1
112 113 114 2
113 115 116 1
114 116 117 2
115 116 118 1
116 119 120 1
117 120 121 1
118 120 123 1
119 121 122 2
120 123 124 1
121 124 125 1
122 125 126 1
123 126 127 1
124 128 129 1
125 129 130 1
126 129 132 1
127 130 131 2
128 130 137 1
129 132 133 1
130 133 134 1
131 134 135 1
132 134 136 2
133 137 138 1
134 138 139 1
135 138 141 1
136 139 140 2
137 141 142 1
138 142 143 1
139 142 144 2
140 145 146 1
141 146 147 1
142 146 149 1
143 147 148 2
144 149 150 1
145 150 151 1
146 150 152 1
147 153 154 1
148 154 155 1
149 154 157 1
150 155 156 2
151 155 158 1
152 158 159 1
153 159 160 1
154 159 162 1
155 160 161 2
156 162 163 1
157 163 164 2
158 163 165 1
@<TRIPOS>SUBSTRUCTURE
1	ILE10	1	RESIDUE	1 B	ILE
2	GLY11	9	RESIDUE	1 B	GLY
3	TYR15	13	RESIDUE	1 B	TYR
4	VAL18	25	RESIDUE	1 B	VAL
5	ALA31	32	RESIDUE	1 B	ALA
6	LYS33	37	RESIDUE	1 B	LYS
7	VAL64	46	RESIDUE	1 B	VAL
8	PHE80	53	RESIDUE	1 B	PHE
9	GLU81	64	RESIDUE	1 B	GLU
10	PHE82	73	RESIDUE	1 B	PHE
11	LEU83	84	RESIDUE	1 B	LEU
12	HIE84	92	RESIDUE	1 B	HIE
13	GLN85	102	RESIDUE	1 B	GLN
14	ASP86	111	RESIDUE	1 B	ASP
15	LYS89	119	RESIDUE	1 B	LYS
16	GLN131	128	RESIDUE	1 B	GLN
17	ASN132	137	RESIDUE	1 B	ASN
18	LEU134	145	RESIDUE	1 B	LEU
19	ALA144	153	RESIDUE	1 B	ALA
20	ASP145	158	RESIDUE	1 B	ASP
