# created with PyMOL 2.5.2
@<TRIPOS>MOLECULE
KRAS_6USZ_TargetProtein
199 191 25              
SMALL
USER_CHARGES
@<TRIPOS>ATOM
1	   N	17.353	-3.251	-16.283	N.am	1	VAL8	0.000	
2	  CA	18.402	-2.722	-15.421	C.3	1	VAL8	0.000	
3	   C	19.268	-1.820	-16.285	C.2	1	VAL8	0.000	
4	   O	19.762	-2.287	-17.301	O.2	1	VAL8	0.000	
5	  CB	19.243	-3.893	-14.882	C.3	1	VAL8	0.000	
6	 CG1	20.418	-3.434	-14.007	C.3	1	VAL8	0.000	
7	 CG2	18.368	-5.007	-14.275	C.3	1	VAL8	0.000	
8	   N	19.358	-0.528	-15.925	N.am	2	VAL9	0.000	
9	  CA	20.099	0.470	-16.691	C.3	2	VAL9	0.000	
10	   C	21.039	1.202	-15.742	C.2	2	VAL9	0.000	
11	   O	20.885	1.126	-14.516	O.2	2	VAL9	0.000	
12	  CB	19.183	1.463	-17.454	C.3	2	VAL9	0.000	
13	 CG1	18.283	0.743	-18.442	C.3	2	VAL9	0.000	
14	 CG2	18.359	2.308	-16.478	C.3	2	VAL9	0.000	
15	   N	21.986	1.947	-16.336	N.am	3	GLY10	0.000	
16	  CA	22.945	2.688	-15.526	C.3	3	GLY10	0.000	
17	   C	24.318	2.616	-16.174	C.2	3	GLY10	0.000	
18	   O	24.547	1.785	-17.064	O.2	3	GLY10	0.000	
19	   N	25.228	3.511	-15.781	N.am	4	ALA11	0.000	
20	  CA	26.463	3.648	-16.549	C.3	4	ALA11	0.000	
21	   C	27.263	2.342	-16.655	C.2	4	ALA11	0.000	
22	   O	27.140	1.481	-15.810	O.2	4	ALA11	0.000	
23	  CB	27.272	4.782	-15.953	C.3	4	ALA11	0.000	
24	   N	28.099	2.168	-17.697	N.am	5	CYS12	0.000	
25	  CA	29.070	1.074	-17.704	C.3	5	CYS12	0.000	
26	   C	29.798	0.963	-16.372	C.2	5	CYS12	0.000	
27	   O	30.184	1.975	-15.833	O.2	5	CYS12	0.000	
28	  CB	30.229	1.390	-18.619	C.3	5	CYS12	0.000	
29	  SG	29.628	1.075	-20.267	S.3	5	CYS12	0.000	
30	   N	25.412	-3.495	-13.241	N.am	6	LYS16	0.000	
31	  CA	24.122	-4.016	-13.725	C.3	6	LYS16	0.000	
32	   C	24.169	-5.548	-13.906	C.2	6	LYS16	0.000	
33	   O	23.239	-6.289	-13.540	O.2	6	LYS16	0.000	
34	  CB	23.745	-3.410	-15.079	C.3	6	LYS16	0.000	
35	  CG	23.638	-1.881	-15.123	C.3	6	LYS16	0.000	
36	  CD	23.359	-1.357	-16.555	C.3	6	LYS16	0.000	
37	  CE	24.514	-1.632	-17.491	C.3	6	LYS16	0.000	
38	  NZ	25.753	-0.877	-17.066	N.4	6	LYS16	0.000	
39	   N	31.401	-6.560	-20.594	N.am	7	PRO34	0.000	
40	  CA	30.586	-5.340	-20.561	C.3	7	PRO34	0.000	
41	   C	29.700	-5.091	-21.775	C.2	7	PRO34	0.000	
42	   O	28.807	-4.263	-21.691	O.2	7	PRO34	0.000	
43	  CB	31.617	-4.213	-20.462	C.3	7	PRO34	0.000	
44	  CG	32.840	-4.842	-21.078	C.3	7	PRO34	0.000	
45	  CD	32.839	-6.274	-20.582	C.3	7	PRO34	0.000	
46	   N	29.965	-5.783	-22.893	N.am	8	THR35	0.000	
47	  CA	29.169	-5.629	-24.104	C.3	8	THR35	0.000	
48	   C	27.985	-6.602	-24.159	C.2	8	THR35	0.000	
49	   O	27.136	-6.423	-25.031	O.2	8	THR35	0.000	
50	  CB	29.960	-5.783	-25.416	C.3	8	THR35	0.000	
51	 CG2	31.216	-4.938	-25.469	C.3	8	THR35	0.000	
52	 OG1	30.260	-7.170	-25.633	O.3	8	THR35	0.000	
53	   N	24.609	-7.947	-23.682	N.am	9	GLU37	0.000	
54	  CA	23.270	-7.597	-23.274	C.3	9	GLU37	0.000	
55	   C	22.374	-8.831	-23.446	C.2	9	GLU37	0.000	
56	   O	22.336	-9.452	-24.515	O.2	9	GLU37	0.000	
57	  CB	22.775	-6.454	-24.157	C.3	9	GLU37	0.000	
58	  CG	21.341	-6.056	-23.810	C.3	9	GLU37	0.000	
59	  CD	20.915	-4.804	-24.550	C.2	9	GLU37	0.000	
60	 OE1	21.226	-3.687	-24.099	O.co2	9	GLU37	0.000	
61	 OE2	20.272	-4.962	-25.608	O.co2	9	GLU37	0.000	
62	   N	20.990	-4.397	-19.449	N.am	10	THR58	0.000	
63	  CA	21.271	-3.554	-20.605	C.3	10	THR58	0.000	
64	   C	22.782	-3.449	-20.813	C.2	10	THR58	0.000	
65	   O	23.520	-3.266	-19.863	O.2	10	THR58	0.000	
66	  CB	20.751	-2.120	-20.405	C.3	10	THR58	0.000	
67	 CG2	20.902	-1.256	-21.645	C.3	10	THR58	0.000	
68	 OG1	19.369	-2.241	-20.082	O.3	10	THR58	0.000	
69	   N	23.226	-3.518	-22.077	N.am	11	ALA59	0.000	
70	  CA	24.649	-3.356	-22.366	C.3	11	ALA59	0.000	
71	   C	24.739	-2.986	-23.841	C.3	11	ALA59	0.000	
72	   O	23.954	-2.181	-24.301	O.2	11	ALA59	0.000	
73	  CB	25.400	-4.644	-22.012	C.3	11	ALA59	0.000	
74	   N	25.589	-3.640	-24.619	N.3	12	GLY60	0.000	
75	  CA	25.747	-3.253	-26.020	C.3	12	GLY60	0.000	
76	   C	26.342	-1.852	-26.098	C.3	12	GLY60	0.000	
77	   O	27.085	-1.454	-25.204	O.3	12	GLY60	0.000	
78	   N	25.985	-1.122	-27.164	N.3	13	GLN61	0.000	
79	  CA	26.434	0.224	-27.463	C.3	13	GLN61	0.000	
80	   C	25.343	1.211	-27.041	C.2	13	GLN61	0.000	
81	   O	24.154	0.860	-26.988	O.2	13	GLN61	0.000	
82	  CB	26.600	0.348	-28.989	C.3	13	GLN61	0.000	
83	  CG	27.392	-0.782	-29.632	C.3	13	GLN61	0.000	
84	  CD	28.741	-0.963	-28.979	C.2	13	GLN61	0.000	
85	 NE2	29.025	-2.180	-28.528	N.pl3	13	GLN61	0.000	
86	 OE1	29.514	-0.022	-28.858	O.2	13	GLN61	0.000	
87	   N	25.737	2.453	-26.762	N.am	14	GLU62	0.000	
88	  CA	24.743	3.527	-26.695	C.3	14	GLU62	0.000	
89	   C	24.271	3.864	-28.103	C.2	14	GLU62	0.000	
90	   O	25.019	4.403	-28.903	O.2	14	GLU62	0.000	
91	  CB	25.321	4.822	-26.116	C.3	14	GLU62	0.000	
92	  CG	24.325	5.958	-26.148	C.3	14	GLU62	0.000	
93	  CD	24.754	7.233	-25.463	C.2	14	GLU62	0.000	
94	 OE1	25.903	7.293	-25.014	O.co2	14	GLU62	0.000	
95	 OE2	23.914	8.138	-25.363	O.co2	14	GLU62	0.000	
96	   N	20.227	4.353	-30.478	N.am	15	TYR64	0.000	
97	  CA	18.819	4.680	-30.347	C.3	15	TYR64	0.000	
98	   C	18.078	4.281	-31.617	C.2	15	TYR64	0.000	
99	   O	17.241	5.046	-32.095	O.2	15	TYR64	0.000	
100	  CB	18.615	6.182	-30.089	C.3	15	TYR64	0.000	
101	  CG	19.318	6.646	-28.845	C.2	15	TYR64	0.000	
102	 CD1	20.654	7.039	-28.889	C.2	15	TYR64	0.000	
103	 CD2	18.680	6.630	-27.614	C.2	15	TYR64	0.000	
104	 CE1	21.327	7.427	-27.731	C.2	15	TYR64	0.000	
105	 CE2	19.349	7.008	-26.451	C.2	15	TYR64	0.000	
106	  CZ	20.673	7.406	-26.511	C.2	15	TYR64	0.000	
107	  OH	21.339	7.812	-25.407	O.3	15	TYR64	0.000	
108	   N	15.995	-0.647	-30.809	N.am	16	ARG68	0.000	
109	  CA	16.403	-0.407	-29.430	C.3	16	ARG68	0.000	
110	   C	15.237	0.143	-28.605	C.2	16	ARG68	0.000	
111	   O	14.939	-0.374	-27.534	O.2	16	ARG68	0.000	
112	  CB	17.724	0.359	-29.336	C.3	16	ARG68	0.000	
113	  CG	17.978	0.964	-27.964	C.3	16	ARG68	0.000	
114	  CD	18.482	-0.066	-26.981	C.3	16	ARG68	0.000	
115	  NE	19.913	-0.321	-27.080	N.pl3	16	ARG68	0.000	
116	  CZ	20.596	-0.960	-26.147	C.cat	16	ARG68	0.000	
117	 NH1	19.977	-1.362	-25.046	N.pl3	16	ARG68	0.000	
118	 NH2	21.895	-1.139	-26.276	N.pl3	16	ARG68	0.000	
119	   N	14.578	1.195	-29.089	N.am	17	ASP69	0.000	
120	  CA	13.462	1.786	-28.369	C.3	17	ASP69	0.000	
121	   C	12.381	0.745	-28.064	C.2	17	ASP69	0.000	
122	   O	11.765	0.775	-26.984	O.2	17	ASP69	0.000	
123	  CB	12.815	2.902	-29.198	C.3	17	ASP69	0.000	
124	  CG	13.522	4.243	-29.080	C.2	17	ASP69	0.000	
125	 OD1	14.619	4.279	-28.459	O.co2	17	ASP69	0.000	
126	 OD2	12.956	5.252	-29.584	O.co2	17	ASP69	0.000	
127	   N	13.393	-1.598	-25.309	N.am	18	MET72	0.000	
128	  CA	13.458	-0.928	-24.015	C.3	18	MET72	0.000	
129	   C	12.042	-0.567	-23.558	C.2	18	MET72	0.000	
130	   O	11.733	-0.611	-22.355	O.2	18	MET72	0.000	
131	  CB	14.335	0.328	-24.054	C.3	18	MET72	0.000	
132	  CG	15.774	0.028	-24.407	C.3	18	MET72	0.000	
133	  SD	16.589	-1.092	-23.186	S.3	18	MET72	0.000	
134	  CE	17.124	-0.028	-21.854	C.3	18	MET72	0.000	
135	   N	24.624	10.364	-14.305	N.am	19	ASP92	0.000	
136	  CA	24.046	9.786	-15.507	C.3	19	ASP92	0.000	
137	   C	22.600	9.357	-15.270	C.2	19	ASP92	0.000	
138	   O	21.883	9.066	-16.229	O.2	19	ASP92	0.000	
139	  CB	24.857	8.583	-15.943	C.3	19	ASP92	0.000	
140	  CG	26.144	8.958	-16.656	C.2	19	ASP92	0.000	
141	 OD1	26.328	10.172	-16.995	O.co2	19	ASP92	0.000	
142	 OD2	26.940	8.031	-16.904	O.co2	19	ASP92	0.000	
143	   N	19.817	10.924	-17.297	N.am	20	HIE95	0.000	
144	  CA	19.766	10.409	-18.661	C.3	20	HIE95	0.000	
145	   C	18.851	9.193	-18.714	C.2	20	HIE95	0.000	
146	   O	17.881	9.204	-19.473	O.2	20	HIE95	0.000	
147	  CB	21.183	10.026	-19.137	C.3	20	HIE95	0.000	
148	  CG	21.163	9.343	-20.455	C.2	20	HIE95	0.000	
149	 CD2	21.457	8.077	-20.822	C.2	20	HIE95	0.000	
150	 ND1	20.798	9.993	-21.606	N.2	20	HIE95	0.000	
151	 CE1	20.886	9.173	-22.637	C.2	20	HIE95	0.000	
152	 NE2	21.263	7.998	-22.180	N.pl3	20	HIE95	0.000	
153	   N	19.160	8.164	-17.900	N.am	21	TYR96	0.000	
154	  CA	18.345	6.966	-17.920	C.3	21	TYR96	0.000	
155	   C	16.878	7.247	-17.586	C.2	21	TYR96	0.000	
156	   O	16.034	6.745	-18.307	O.2	21	TYR96	0.000	
157	  CB	18.994	5.777	-17.206	C.3	21	TYR96	0.000	
158	  CG	20.361	5.460	-17.764	C.2	21	TYR96	0.000	
159	 CD1	20.484	4.800	-18.978	C.2	21	TYR96	0.000	
160	 CD2	21.518	5.876	-17.133	C.2	21	TYR96	0.000	
161	 CE1	21.722	4.517	-19.531	C.2	21	TYR96	0.000	
162	 CE2	22.778	5.600	-17.663	C.2	21	TYR96	0.000	
163	  CZ	22.881	4.903	-18.860	C.2	21	TYR96	0.000	
164	  OH	24.092	4.621	-19.420	O.3	21	TYR96	0.000	
165	   N	15.261	8.864	-20.674	N.am	22	GLN99	0.000	
166	  CA	15.091	7.923	-21.775	C.3	22	GLN99	0.000	
167	   C	13.897	7.004	-21.496	C.2	22	GLN99	0.000	
168	   O	13.186	6.645	-22.425	O.2	22	GLN99	0.000	
169	  CB	16.391	7.165	-22.090	C.3	22	GLN99	0.000	
170	  CG	17.471	8.043	-22.673	C.3	22	GLN99	0.000	
171	  CD	16.876	8.751	-23.863	C.2	22	GLN99	0.000	
172	 NE2	16.825	10.076	-23.808	N.pl3	22	GLN99	0.000	
173	 OE1	16.441	8.116	-24.822	O.2	22	GLN99	0.000	
174	   N	13.713	6.596	-20.226	N.am	23	ILE100	0.000	
175	  CA	12.529	5.832	-19.840	C.3	23	ILE100	0.000	
176	   C	11.263	6.626	-20.184	C.2	23	ILE100	0.000	
177	   O	10.391	6.093	-20.867	O.2	23	ILE100	0.000	
178	  CB	12.588	5.386	-18.359	C.3	23	ILE100	0.000	
179	 CG1	13.804	4.498	-18.098	C.3	23	ILE100	0.000	
180	 CG2	11.274	4.711	-17.935	C.3	23	ILE100	0.000	
181	 CD1	14.166	4.413	-16.645	C.3	23	ILE100	0.000	
182	   N	10.848	9.103	-22.274	N.am	24	ARG102	0.000	
183	  CA	10.745	9.222	-23.721	C.3	24	ARG102	0.000	
184	   C	10.088	7.987	-24.334	C.2	24	ARG102	0.000	
185	   O	9.152	8.108	-25.124	O.2	24	ARG102	0.000	
186	  CB	12.120	9.428	-24.360	C.3	24	ARG102	0.000	
187	  CG	12.064	9.661	-25.879	C.3	24	ARG102	0.000	
188	  CD	13.430	10.057	-26.452	C.3	24	ARG102	0.000	
189	  NE	14.289	8.876	-26.363	N.pl3	24	ARG102	0.000	
190	  CZ	14.184	7.786	-27.133	C.cat	24	ARG102	0.000	
191	 NH1	13.260	7.685	-28.083	N.pl3	24	ARG102	0.000	
192	 NH2	15.014	6.783	-26.937	N.pl3	24	ARG102	0.000	
193	   N	10.614	6.795	-24.046	N.am	25	VAL103	0.000	
194	  CA	10.162	5.635	-24.817	C.3	25	VAL103	0.000	
195	   C	8.825	5.120	-24.303	C.2	25	VAL103	0.000	
196	   O	8.116	4.454	-25.057	O.2	25	VAL103	0.000	
197	  CB	11.175	4.475	-24.874	C.3	25	VAL103	0.000	
198	 CG1	12.511	4.915	-25.446	C.3	25	VAL103	0.000	
199	 CG2	11.317	3.743	-23.550	C.3	25	VAL103	0.000	
@<TRIPOS>BOND
1 1 2 1
2 2 3 1
3 2 5 1
4 3 4 2
5 3 8 1
6 5 6 1
7 5 7 1
8 8 9 1
9 9 10 1
10 9 12 1
11 10 11 2
12 10 15 1
13 12 13 1
14 12 14 1
15 15 16 1
16 16 17 1
17 17 18 2
18 17 19 1
19 19 20 1
20 20 21 1
21 20 23 1
22 21 22 2
23 21 24 1
24 24 25 1
25 25 26 1
26 25 28 1
27 26 27 2
28 28 29 1
29 30 31 1
30 31 32 1
31 31 34 1
32 32 33 2
33 34 35 1
34 35 36 1
35 36 37 1
36 37 38 1
37 39 40 1
38 39 45 1
39 40 41 1
40 40 43 1
41 41 42 2
42 41 46 1
43 43 44 1
44 44 45 1
45 46 47 1
46 47 48 1
47 47 50 1
48 48 49 2
49 50 51 1
50 50 52 1
51 53 54 1
52 54 55 1
53 54 57 1
54 55 56 2
55 57 58 1
56 58 59 1
57 59 60 2
58 59 61 1
59 62 63 1
60 63 64 1
61 63 66 1
62 64 65 2
63 64 69 1
64 66 67 1
65 66 68 1
66 69 70 1
67 70 71 1
68 70 73 1
69 71 72 2
70 71 74 1
71 74 75 1
72 75 76 1
73 76 77 2
74 76 78 1
75 78 79 1
76 79 80 1
77 79 82 1
78 80 81 2
79 80 87 1
80 82 83 1
81 83 84 1
82 84 85 1
83 84 86 2
84 87 88 1
85 88 89 1
86 88 91 1
87 89 90 2
88 91 92 1
89 92 93 1
90 93 94 2
91 93 95 1
92 96 97 1
93 97 98 1
94 97 100 1
95 98 99 2
96 100 101 1
97 101 102 2
98 101 103 1
99 102 104 1
100 103 105 2
101 104 106 2
102 105 106 1
103 106 107 1
104 108 109 1
105 109 110 1
106 109 112 1
107 110 111 2
108 110 119 1
109 112 113 1
110 113 114 1
111 114 115 1
112 115 116 1
113 116 117 2
114 116 118 1
115 119 120 1
116 120 121 1
117 120 123 1
118 121 122 2
119 123 124 1
120 124 125 2
121 124 126 1
122 127 128 1
123 128 129 1
124 128 131 1
125 129 130 2
126 131 132 1
127 132 133 1
128 133 134 1
129 135 136 1
130 136 137 1
131 136 139 1
132 137 138 2
133 139 140 1
134 140 141 2
135 140 142 1
136 143 144 1
137 144 145 1
138 144 147 1
139 145 146 2
140 145 153 1
141 147 148 1
142 148 149 2
143 148 150 1
144 149 152 1
145 150 151 2
146 151 152 1
147 153 154 1
148 154 155 1
149 154 157 1
150 155 156 2
151 157 158 1
152 158 159 2
153 158 160 1
154 159 161 1
155 160 162 2
156 161 163 2
157 162 163 1
158 163 164 1
159 165 166 1
160 166 167 1
161 166 169 1
162 167 168 2
163 167 174 1
164 169 170 1
165 170 171 1
166 171 172 1
167 171 173 2
168 174 175 1
169 175 176 1
170 175 178 1
171 176 177 2
172 178 179 1
173 178 180 1
174 179 181 1
175 182 183 1
176 183 184 1
177 183 186 1
178 184 185 2
179 184 193 1
180 186 187 1
181 187 188 1
182 188 189 1
183 189 190 1
184 190 191 2
185 190 192 1
186 193 194 1
187 194 195 1
188 194 197 1
189 195 196 2
190 197 198 1
191 197 199 1
@<TRIPOS>SUBSTRUCTURE
1	VAL8	1	RESIDUE	1 B	VAL
2	VAL9	8	RESIDUE	1 B	VAL
3	GLY10	15	RESIDUE	1 B	GLY
4	ALA11	19	RESIDUE	1 B	ALA
5	CYS12	24	RESIDUE	1 B	CYS
6	LYS16	30	RESIDUE	1 B	LYS
7	PRO34	39	RESIDUE	1 B	PRO
8	THR35	46	RESIDUE	1 B	THR
9	GLU37	53	RESIDUE	1 B	GLU
10	THR58	62	RESIDUE	1 B	THR
11	ALA59	69	RESIDUE	1 B	ALA
12	GLY60	74	RESIDUE	1 B	GLY
13	GLN61	78	RESIDUE	1 B	GLN
14	GLU62	87	RESIDUE	1 B	GLU
15	TYR64	96	RESIDUE	1 B	TYR
16	ARG68	108	RESIDUE	1 B	ARG
17	ASP69	119	RESIDUE	1 B	ASP
18	MET72	127	RESIDUE	1 B	MET
19	ASP92	135	RESIDUE	1 B	ASP
20	HIE95	143	RESIDUE	1 B	HIE
21	TYR96	153	RESIDUE	1 B	TYR
22	GLN99	165	RESIDUE	1 B	GLN
23	ILE100	174	RESIDUE	1 B	ILE
24	ARG102	182	RESIDUE	1 B	ARG
25	VAL103	193	RESIDUE	1 B	VAL
