# created with PyMOL 2.5.2
@<TRIPOS>MOLECULE
BCL2_4LVT_TargetProtein
209 204 24              
SMALL
USER_CHARGES
@<TRIPOS>ATOM
1	   N	9.199	-9.652	-2.240	N.am	1	ALA97	0.000	
2	  CA	8.932	-8.738	-3.364	C.3	1	ALA97	0.000	
3	   C	9.434	-7.318	-3.043	C.2	1	ALA97	0.000	
4	   O	9.916	-6.592	-3.925	O.2	1	ALA97	0.000	
5	  CB	7.416	-8.709	-3.710	C.3	1	ALA97	0.000	
6	   N	13.115	-7.176	-3.389	N.am	2	ASP100	0.000	
7	  CA	13.423	-7.170	-4.823	C.3	2	ASP100	0.000	
8	   C	13.220	-5.780	-5.388	C.2	2	ASP100	0.000	
9	   O	14.013	-5.311	-6.198	O.2	2	ASP100	0.000	
10	  CB	12.494	-8.109	-5.594	C.3	2	ASP100	0.000	
11	  CG	12.938	-9.562	-5.533	C.2	2	ASP100	0.000	
12	 OD1	12.180	-10.422	-6.045	O.co2	2	ASP100	0.000	
13	 OD2	13.972	-9.858	-4.884	O.co2	2	ASP100	0.000	
14	   N	12.089	-5.164	-5.031	N.am	3	PHE101	0.000	
15	  CA	11.800	-3.822	-5.500	C.3	3	PHE101	0.000	
16	   C	12.904	-2.855	-5.139	C.2	3	PHE101	0.000	
17	   O	13.336	-2.075	-5.973	O.2	3	PHE101	0.000	
18	  CB	10.474	-3.296	-4.926	C.3	3	PHE101	0.000	
19	  CG	10.245	-1.835	-5.205	C.2	3	PHE101	0.000	
20	 CD1	9.694	-1.421	-6.421	C.2	3	PHE101	0.000	
21	 CD2	10.674	-0.877	-4.293	C.2	3	PHE101	0.000	
22	 CE1	9.539	-0.063	-6.714	C.2	3	PHE101	0.000	
23	 CE2	10.482	0.473	-4.551	C.2	3	PHE101	0.000	
24	  CZ	9.901	0.884	-5.763	C.2	3	PHE101	0.000	
25	   N	16.123	-3.607	-7.255	N.am	4	ARG104	0.000	
26	  CA	15.904	-3.334	-8.669	C.3	4	ARG104	0.000	
27	   C	15.677	-1.858	-8.966	C.2	4	ARG104	0.000	
28	   O	16.045	-1.365	-10.035	O.2	4	ARG104	0.000	
29	  CB	14.735	-4.187	-9.184	C.3	4	ARG104	0.000	
30	  CG	14.959	-5.709	-9.008	C.3	4	ARG104	0.000	
31	  CD	13.706	-6.502	-9.418	C.3	4	ARG104	0.000	
32	  NE	13.952	-7.943	-9.422	N.pl3	4	ARG104	0.000	
33	  CZ	13.658	-8.762	-10.426	C.cat	4	ARG104	0.000	
34	 NH1	13.097	-8.311	-11.550	N.pl3	4	ARG104	0.000	
35	 NH2	13.936	-10.043	-10.302	N.pl3	4	ARG104	0.000	
36	   N	15.075	-1.139	-8.018	N.am	5	TYR105	0.000	
37	  CA	14.833	0.293	-8.183	C.3	5	TYR105	0.000	
38	   C	15.561	1.053	-7.079	C.2	5	TYR105	0.000	
39	   O	14.991	1.850	-6.347	O.2	5	TYR105	0.000	
40	  CB	13.333	0.606	-8.196	C.3	5	TYR105	0.000	
41	  CG	12.664	0.018	-9.409	C.2	5	TYR105	0.000	
42	 CD1	12.123	-1.271	-9.375	C.2	5	TYR105	0.000	
43	 CD2	12.704	0.689	-10.627	C.2	5	TYR105	0.000	
44	 CE1	11.568	-1.846	-10.528	C.2	5	TYR105	0.000	
45	 CE2	12.150	0.136	-11.772	C.2	5	TYR105	0.000	
46	  CZ	11.583	-1.127	-11.717	C.2	5	TYR105	0.000	
47	  OH	11.035	-1.636	-12.871	O.3	5	TYR105	0.000	
48	   N	15.547	5.061	-6.992	N.am	6	ASP108	0.000	
49	  CA	14.299	5.604	-6.433	C.3	6	ASP108	0.000	
50	   C	14.302	5.436	-4.907	C.2	6	ASP108	0.000	
51	   O	13.999	6.370	-4.163	O.2	6	ASP108	0.000	
52	  CB	13.101	4.868	-7.034	C.3	6	ASP108	0.000	
53	  CG	12.911	5.175	-8.504	C.2	6	ASP108	0.000	
54	 OD1	13.043	4.263	-9.337	O.co2	6	ASP108	0.000	
55	 OD2	12.671	6.345	-8.838	O.co2	6	ASP108	0.000	
56	   N	14.648	4.228	-4.458	N.am	7	PHE109	0.000	
57	  CA	14.692	3.897	-3.036	C.3	7	PHE109	0.000	
58	   C	15.657	4.816	-2.289	C.2	7	PHE109	0.000	
59	   O	15.331	5.363	-1.247	O.2	7	PHE109	0.000	
60	  CB	15.148	2.442	-2.860	C.3	7	PHE109	0.000	
61	  CG	15.164	1.977	-1.430	C.2	7	PHE109	0.000	
62	 CD1	16.314	2.083	-0.661	C.2	7	PHE109	0.000	
63	 CD2	14.022	1.443	-0.847	C.2	7	PHE109	0.000	
64	 CE1	16.334	1.631	0.658	C.2	7	PHE109	0.000	
65	 CE2	14.033	0.982	0.447	C.2	7	PHE109	0.000	
66	  CZ	15.180	1.091	1.215	C.2	7	PHE109	0.000	
67	   N	14.441	8.566	-2.296	N.am	8	MET112	0.000	
68	  CA	13.338	8.790	-1.376	C.3	8	MET112	0.000	
69	   C	13.920	8.796	0.034	C.2	8	MET112	0.000	
70	   O	13.624	9.676	0.823	O.2	8	MET112	0.000	
71	  CB	12.278	7.681	-1.524	C.3	8	MET112	0.000	
72	  CG	11.104	7.834	-0.581	C.3	8	MET112	0.000	
73	  SD	10.148	9.309	-0.949	S.3	8	MET112	0.000	
74	  CE	9.242	8.807	-2.390	C.3	8	MET112	0.000	
75	   N	3.055	11.574	-1.615	N.am	9	VAL130	0.000	
76	  CA	3.762	10.517	-2.336	C.3	9	VAL130	0.000	
77	   C	2.782	9.428	-2.777	C.2	9	VAL130	0.000	
78	   O	2.792	9.001	-3.928	O.2	9	VAL130	0.000	
79	  CB	4.895	9.949	-1.461	C.3	9	VAL130	0.000	
80	 CG1	5.405	8.624	-2.018	C.3	9	VAL130	0.000	
81	 CG2	5.997	10.995	-1.324	C.3	9	VAL130	0.000	
82	   N	0.811	10.436	-5.723	N.am	10	GLU133	0.000	
83	  CA	1.628	10.429	-6.923	C.3	10	GLU133	0.000	
84	   C	1.869	9.003	-7.417	C.2	10	GLU133	0.000	
85	   O	1.853	8.720	-8.623	O.2	10	GLU133	0.000	
86	  CB	2.977	11.104	-6.672	C.3	10	GLU133	0.000	
87	  CG	2.891	12.609	-6.506	C.3	10	GLU133	0.000	
88	  CD	4.198	13.226	-6.036	C.2	10	GLU133	0.000	
89	 OE1	5.165	12.480	-5.759	O.co2	10	GLU133	0.000	
90	 OE2	4.245	14.467	-5.897	O.co2	10	GLU133	0.000	
91	   N	2.109	8.109	-6.469	N.am	11	LEU134	0.000	
92	  CA	2.405	6.726	-6.793	C.3	11	LEU134	0.000	
93	   C	1.284	6.084	-7.584	C.2	11	LEU134	0.000	
94	   O	1.535	5.339	-8.522	O.2	11	LEU134	0.000	
95	  CB	2.668	5.927	-5.496	C.3	11	LEU134	0.000	
96	  CG	2.905	4.414	-5.628	C.3	11	LEU134	0.000	
97	 CD1	4.037	4.132	-6.625	C.3	11	LEU134	0.000	
98	 CD2	3.268	3.839	-4.247	C.3	11	LEU134	0.000	
99	   N	-1.175	-1.199	-9.912	N.am	12	ASN140	0.000	
100	  CA	-0.683	-2.509	-10.340	C.3	12	ASN140	0.000	
101	   C	0.058	-3.084	-9.132	C.2	12	ASN140	0.000	
102	   O	0.244	-2.379	-8.143	O.2	12	ASN140	0.000	
103	  CB	0.143	-2.480	-11.640	C.3	12	ASN140	0.000	
104	  CG	1.418	-1.672	-11.508	C.2	12	ASN140	0.000	
105	 ND2	1.820	-1.007	-12.583	N.pl3	12	ASN140	0.000	
106	 OD1	2.072	-1.710	-10.481	O.2	12	ASN140	0.000	
107	   N	0.357	-4.375	-9.142	N.am	13	TRP141	0.000	
108	  CA	0.984	-4.998	-7.971	C.3	13	TRP141	0.000	
109	   C	2.352	-4.408	-7.654	C.2	13	TRP141	0.000	
110	   O	2.744	-4.335	-6.500	O.2	13	TRP141	0.000	
111	  CB	1.092	-6.516	-8.158	C.3	13	TRP141	0.000	
112	  CG	-0.235	-7.259	-7.985	C.2	13	TRP141	0.000	
113	 CD1	-0.939	-7.948	-8.957	C.2	13	TRP141	0.000	
114	 CD2	-1.003	-7.384	-6.772	C.2	13	TRP141	0.000	
115	 CE2	-2.135	-8.200	-7.069	C.2	13	TRP141	0.000	
116	 CE3	-0.841	-6.903	-5.467	C.2	13	TRP141	0.000	
117	 NE1	-2.063	-8.545	-8.394	N.pl3	13	TRP141	0.000	
118	 CZ2	-3.085	-8.535	-6.107	C.2	13	TRP141	0.000	
119	 CZ3	-1.790	-7.249	-4.508	C.2	13	TRP141	0.000	
120	 CH2	-2.872	-8.085	-4.827	C.2	13	TRP141	0.000	
121	   N	3.095	-4.001	-8.672	N.am	14	GLY142	0.000	
122	  CA	4.407	-3.427	-8.408	C.3	14	GLY142	0.000	
123	   C	4.311	-2.113	-7.644	C.2	14	GLY142	0.000	
124	   O	5.111	-1.842	-6.771	O.2	14	GLY142	0.000	
125	   N	3.293	-1.319	-7.934	N.am	15	ARG143	0.000	
126	  CA	3.077	-0.057	-7.226	C.3	15	ARG143	0.000	
127	   C	2.592	-0.331	-5.827	C.2	15	ARG143	0.000	
128	   O	2.891	0.425	-4.919	O.2	15	ARG143	0.000	
129	  CB	2.067	0.820	-7.964	C.3	15	ARG143	0.000	
130	  CG	2.639	1.399	-9.242	C.3	15	ARG143	0.000	
131	  CD	1.597	2.076	-10.087	C.3	15	ARG143	0.000	
132	  NE	2.220	2.648	-11.290	N.pl3	15	ARG143	0.000	
133	  CZ	1.556	2.912	-12.413	C.cat	15	ARG143	0.000	
134	 NH1	2.192	3.401	-13.463	N.pl3	15	ARG143	0.000	
135	 NH2	0.251	2.694	-12.483	N.pl3	15	ARG143	0.000	
136	   N	3.586	-2.940	-4.081	N.am	16	VAL145	0.000	
137	  CA	4.822	-3.264	-3.370	C.3	16	VAL145	0.000	
138	   C	5.600	-1.973	-3.060	C.2	16	VAL145	0.000	
139	   O	6.142	-1.800	-1.970	O.2	16	VAL145	0.000	
140	  CB	5.688	-4.235	-4.200	C.3	16	VAL145	0.000	
141	 CG1	7.056	-4.434	-3.513	C.3	16	VAL145	0.000	
142	 CG2	4.953	-5.563	-4.369	C.3	16	VAL145	0.000	
143	   N	5.637	-1.067	-4.025	N.am	17	ALA146	0.000	
144	  CA	6.345	0.217	-3.860	C.3	17	ALA146	0.000	
145	   C	5.741	0.992	-2.712	C.2	17	ALA146	0.000	
146	   O	6.451	1.661	-1.972	O.2	17	ALA146	0.000	
147	  CB	6.279	1.041	-5.134	C.3	17	ALA146	0.000	
148	   N	7.092	-0.503	0.471	N.am	18	GLU149	0.000	
149	  CA	8.501	-0.139	0.632	C.3	18	GLU149	0.000	
150	   C	8.632	1.341	1.006	C.2	18	GLU149	0.000	
151	   O	9.527	1.728	1.752	O.2	18	GLU149	0.000	
152	  CB	9.347	-0.476	-0.622	C.3	18	GLU149	0.000	
153	  CG	9.605	-1.986	-0.791	C.3	18	GLU149	0.000	
154	  CD	10.486	-2.535	0.324	C.2	18	GLU149	0.000	
155	 OE1	11.520	-1.905	0.614	O.co2	18	GLU149	0.000	
156	 OE2	10.107	-3.543	0.951	O.co2	18	GLU149	0.000	
157	   N	7.738	2.167	0.491	N.am	19	PHE150	0.000	
158	  CA	7.747	3.594	0.857	C.3	19	PHE150	0.000	
159	   C	7.363	3.756	2.347	C.2	19	PHE150	0.000	
160	   O	7.964	4.541	3.070	O.2	19	PHE150	0.000	
161	  CB	6.780	4.387	-0.022	C.3	19	PHE150	0.000	
162	  CG	6.503	5.754	0.492	C.2	19	PHE150	0.000	
163	 CD1	7.516	6.700	0.531	C.2	19	PHE150	0.000	
164	 CD2	5.242	6.089	0.982	C.2	19	PHE150	0.000	
165	 CE1	7.280	7.963	1.029	C.2	19	PHE150	0.000	
166	 CE2	5.018	7.339	1.492	C.2	19	PHE150	0.000	
167	  CZ	6.050	8.272	1.536	C.2	19	PHE150	0.000	
168	   N	10.346	2.744	4.265	N.am	20	VAL153	0.000	
169	  CA	11.393	3.792	4.236	C.3	20	VAL153	0.000	
170	   C	11.005	4.858	5.269	C.2	20	VAL153	0.000	
171	   O	11.844	5.319	6.040	O.2	20	VAL153	0.000	
172	  CB	11.514	4.443	2.825	C.3	20	VAL153	0.000	
173	 CG1	12.296	5.773	2.896	C.3	20	VAL153	0.000	
174	 CG2	12.210	3.502	1.841	C.3	20	VAL153	0.000	
175	   N	-1.435	-12.045	-5.941	N.am	21	PHE195	0.000	
176	  CA	-0.095	-11.481	-5.759	C.3	21	PHE195	0.000	
177	   C	0.867	-12.629	-5.473	C.2	21	PHE195	0.000	
178	   O	1.944	-12.722	-6.047	O.2	21	PHE195	0.000	
179	  CB	-0.099	-10.531	-4.555	C.3	21	PHE195	0.000	
180	  CG	1.268	-10.060	-4.170	C.2	21	PHE195	0.000	
181	 CD1	1.965	-9.210	-5.000	C.2	21	PHE195	0.000	
182	 CD2	1.869	-10.502	-2.997	C.2	21	PHE195	0.000	
183	 CE1	3.226	-8.773	-4.671	C.2	21	PHE195	0.000	
184	 CE2	3.170	-10.084	-2.666	C.2	21	PHE195	0.000	
185	  CZ	3.838	-9.209	-3.509	C.2	21	PHE195	0.000	
186	   N	1.582	-14.511	-8.685	N.am	22	LEU198	0.000	
187	  CA	2.357	-13.699	-9.615	C.3	22	LEU198	0.000	
188	   C	3.821	-13.638	-9.221	C.2	22	LEU198	0.000	
189	   O	4.716	-13.666	-10.078	O.2	22	LEU198	0.000	
190	  CB	1.790	-12.286	-9.636	C.3	22	LEU198	0.000	
191	  CG	1.657	-11.530	-10.940	C.3	22	LEU198	0.000	
192	 CD1	1.205	-12.436	-12.067	C.3	22	LEU198	0.000	
193	 CD2	0.673	-10.387	-10.720	C.3	22	LEU198	0.000	
194	   N	4.081	-13.495	-7.928	N.am	23	TYR199	0.000	
195	  CA	5.468	-13.414	-7.485	C.3	23	TYR199	0.000	
196	   C	6.151	-14.777	-7.557	C.2	23	TYR199	0.000	
197	   O	7.290	-14.879	-8.008	O.2	23	TYR199	0.000	
198	  CB	5.597	-12.833	-6.069	C.3	23	TYR199	0.000	
199	  CG	7.034	-12.644	-5.664	C.2	23	TYR199	0.000	
200	 CD1	7.740	-11.530	-6.068	C.2	23	TYR199	0.000	
201	 CD2	7.722	-13.647	-4.980	C.2	23	TYR199	0.000	
202	 CE1	9.071	-11.361	-5.725	C.2	23	TYR199	0.000	
203	 CE2	9.069	-13.496	-4.652	C.2	23	TYR199	0.000	
204	  CZ	9.734	-12.360	-5.053	C.2	23	TYR199	0.000	
205	  OH	11.063	-12.197	-4.717	O.3	23	TYR199	0.000	
206	   N	5.446	-15.810	-7.111	N.am	24	GLY200	0.000	
207	  CA	5.960	-17.171	-7.070	C.3	24	GLY200	0.000	
208	   C	6.510	-17.474	-5.680	C.2	24	GLY200	0.000	
209	   O	7.540	-16.930	-5.280	O.2	24	GLY200	0.000	
@<TRIPOS>BOND
1 1 2 1
2 2 3 1
3 2 5 1
4 3 4 2
5 6 7 1
6 7 8 1
7 7 10 1
8 8 9 2
9 8 14 1
10 10 11 1
11 11 12 2
12 11 13 1
13 14 15 1
14 15 16 1
15 15 18 1
16 16 17 2
17 18 19 1
18 19 20 2
19 19 21 1
20 20 22 1
21 21 23 2
22 22 24 2
23 23 24 1
24 25 26 1
25 26 27 1
26 26 29 1
27 27 28 2
28 27 36 1
29 29 30 1
30 30 31 1
31 31 32 1
32 32 33 1
33 33 34 2
34 33 35 1
35 36 37 1
36 37 38 1
37 37 40 1
38 38 39 2
39 40 41 1
40 41 42 2
41 41 43 1
42 42 44 1
43 43 45 2
44 44 46 2
45 45 46 1
46 46 47 1
47 48 49 1
48 49 50 1
49 49 52 1
50 50 51 2
51 50 56 1
52 52 53 1
53 53 54 2
54 53 55 1
55 56 57 1
56 57 58 1
57 57 60 1
58 58 59 2
59 60 61 1
60 61 62 2
61 61 63 1
62 62 64 1
63 63 65 2
64 64 66 2
65 65 66 1
66 67 68 1
67 68 69 1
68 68 71 1
69 69 70 2
70 71 72 1
71 72 73 1
72 73 74 1
73 75 76 1
74 76 77 1
75 76 79 1
76 77 78 2
77 79 80 1
78 79 81 1
79 82 83 1
80 83 84 1
81 83 86 1
82 84 85 2
83 84 91 1
84 86 87 1
85 87 88 1
86 88 89 2
87 88 90 1
88 91 92 1
89 92 93 1
90 92 95 1
91 93 94 2
92 95 96 1
93 96 97 1
94 96 98 1
95 99 100 1
96 100 101 1
97 100 103 1
98 101 102 2
99 101 107 1
100 103 104 1
101 104 105 1
102 104 106 2
103 107 108 1
104 108 109 1
105 108 111 1
106 109 110 2
107 109 121 1
108 111 112 1
109 112 113 2
110 112 114 1
111 113 117 1
112 114 115 2
113 114 116 1
114 115 118 1
115 116 119 2
116 115 117 1
117 118 120 2
118 119 120 1
119 121 122 1
120 122 123 1
121 123 124 2
122 123 125 1
123 125 126 1
124 126 127 1
125 126 129 1
126 127 128 2
127 129 130 1
128 130 131 1
129 131 132 1
130 132 133 1
131 133 134 2
132 133 135 1
133 136 137 1
134 137 138 1
135 137 140 1
136 138 139 2
137 138 143 1
138 140 141 1
139 140 142 1
140 143 144 1
141 144 145 1
142 144 147 1
143 145 146 2
144 148 149 1
145 149 150 1
146 149 152 1
147 150 151 2
148 150 157 1
149 152 153 1
150 153 154 1
151 154 155 2
152 154 156 1
153 157 158 1
154 158 159 1
155 158 161 1
156 159 160 2
157 161 162 1
158 162 163 2
159 162 164 1
160 163 165 1
161 164 166 2
162 165 167 2
163 166 167 1
164 168 169 1
165 169 170 1
166 169 172 1
167 170 171 2
168 172 173 1
169 172 174 1
170 175 176 1
171 176 177 1
172 176 179 1
173 177 178 2
174 179 180 1
175 180 181 2
176 180 182 1
177 181 183 1
178 182 184 2
179 183 185 2
180 184 185 1
181 186 187 1
182 187 188 1
183 187 190 1
184 188 189 2
185 188 194 1
186 190 191 1
187 191 192 1
188 191 193 1
189 194 195 1
190 195 196 1
191 195 198 1
192 196 197 2
193 196 206 1
194 198 199 1
195 199 200 2
196 199 201 1
197 200 202 1
198 201 203 2
199 202 204 2
200 203 204 1
201 204 205 1
202 206 207 1
203 207 208 1
204 208 209 2
@<TRIPOS>SUBSTRUCTURE
1	ALA97	1	RESIDUE	1 B	ALA
2	ASP100	6	RESIDUE	1 B	ASP
3	PHE101	14	RESIDUE	1 B	PHE
4	ARG104	25	RESIDUE	1 B	ARG
5	TYR105	36	RESIDUE	1 B	TYR
6	ASP108	48	RESIDUE	1 B	ASP
7	PHE109	56	RESIDUE	1 B	PHE
8	MET112	67	RESIDUE	1 B	MET
9	VAL130	75	RESIDUE	1 B	VAL
10	GLU133	82	RESIDUE	1 B	GLU
11	LEU134	91	RESIDUE	1 B	LEU
12	ASN140	99	RESIDUE	1 B	ASN
13	TRP141	107	RESIDUE	1 B	TRP
14	GLY142	121	RESIDUE	1 B	GLY
15	ARG143	125	RESIDUE	1 B	ARG
16	VAL145	136	RESIDUE	1 B	VAL
17	ALA146	143	RESIDUE	1 B	ALA
18	GLU149	148	RESIDUE	1 B	GLU
19	PHE150	157	RESIDUE	1 B	PHE
20	VAL153	168	RESIDUE	1 B	VAL
21	PHE195	175	RESIDUE	1 B	PHE
22	LEU198	186	RESIDUE	1 B	LEU
23	TYR199	194	RESIDUE	1 B	TYR
24	GLY200	206	RESIDUE	1 B	GLY
