# created with PyMOL 2.5.2
@<TRIPOS>MOLECULE
WDR5_4QL1_TargetProtein
155 147 21              
SMALL
USER_CHARGES
@<TRIPOS>ATOM
1	   N	-0.033	-27.503	4.139	N.am	1	ALA47	0.000	
2	  CA	-0.878	-26.337	4.425	C.3	1	ALA47	0.000	
3	   C	-1.670	-26.510	5.730	C.2	1	ALA47	0.000	
4	   O	-2.169	-27.612	6.022	O.2	1	ALA47	0.000	
5	  CB	-1.847	-26.103	3.292	C.3	1	ALA47	0.000	
6	   N	-1.791	-25.432	6.489	N.am	2	VAL48	0.000	
7	  CA	-2.631	-25.422	7.654	C.3	2	VAL48	0.000	
8	   C	-4.014	-24.923	7.220	C.2	2	VAL48	0.000	
9	   O	-4.140	-23.817	6.667	O.2	2	VAL48	0.000	
10	  CB	-2.053	-24.556	8.806	C.3	2	VAL48	0.000	
11	 CG1	-2.894	-24.730	10.034	C.3	2	VAL48	0.000	
12	 CG2	-0.598	-24.885	9.110	C.3	2	VAL48	0.000	
13	   N	-5.049	-25.675	7.543	N.am	3	SER49	0.000	
14	  CA	-6.398	-25.406	7.060	C.3	3	SER49	0.000	
15	   C	-7.323	-24.639	8.002	C.2	3	SER49	0.000	
16	   O	-8.217	-23.948	7.528	O.2	3	SER49	0.000	
17	  CB	-7.074	-26.714	6.672	C.3	3	SER49	0.000	
18	  OG	-7.031	-27.659	7.720	O.3	3	SER49	0.000	
19	   N	-7.147	-24.817	9.310	N.am	4	SER50	0.000	
20	  CA	-8.062	-24.234	10.281	C.3	4	SER50	0.000	
21	   C	-7.344	-24.090	11.598	C.2	4	SER50	0.000	
22	   O	-6.555	-24.968	11.999	O.2	4	SER50	0.000	
23	  CB	-9.261	-25.145	10.438	C.3	4	SER50	0.000	
24	  OG	-10.349	-24.433	10.998	O.3	4	SER50	0.000	
25	   N	-4.588	-29.674	9.394	N.am	5	SER64	0.000	
26	  CA	-3.743	-29.522	8.232	C.3	5	SER64	0.000	
27	   C	-3.997	-30.548	7.130	C.2	5	SER64	0.000	
28	   O	-4.494	-31.650	7.375	O.2	5	SER64	0.000	
29	  CB	-2.292	-29.565	8.721	C.3	5	SER64	0.000	
30	  OG	-1.379	-29.624	7.635	O.3	5	SER64	0.000	
31	   N	-3.588	-30.197	5.926	N.am	6	ALA65	0.000	
32	  CA	-3.501	-31.139	4.821	C.3	6	ALA65	0.000	
33	   C	-2.580	-32.337	5.126	C.2	6	ALA65	0.000	
34	   O	-2.666	-33.354	4.441	O.2	6	ALA65	0.000	
35	  CB	-3.035	-30.422	3.567	C.3	6	ALA65	0.000	
36	   N	-6.159	-35.427	4.188	N.am	7	GLY89	0.000	
37	  CA	-6.109	-34.098	4.776	C.3	7	GLY89	0.000	
38	   C	-7.347	-33.711	5.514	C.2	7	GLY89	0.000	
39	   O	-8.440	-34.217	5.244	O.2	7	GLY89	0.000	
40	   N	-7.162	-32.805	6.465	N.am	8	ILE90	0.000	
41	  CA	-8.257	-32.306	7.308	C.3	8	ILE90	0.000	
42	   C	-8.521	-30.864	6.912	C.2	8	ILE90	0.000	
43	   O	-7.607	-30.096	6.823	O.2	8	ILE90	0.000	
44	  CB	-7.889	-32.383	8.796	C.3	8	ILE90	0.000	
45	 CG1	-7.594	-33.833	9.250	C.3	8	ILE90	0.000	
46	 CG2	-9.028	-31.821	9.632	C.3	8	ILE90	0.000	
47	 CD1	-6.954	-33.891	10.619	C.3	8	ILE90	0.000	
48	   N	-9.791	-30.523	6.709	N.am	9	SER91	0.000	
49	  CA	-10.187	-29.185	6.296	C.3	9	SER91	0.000	
50	   C	-10.615	-28.309	7.486	C.2	9	SER91	0.000	
51	   O	-10.532	-27.102	7.400	O.2	9	SER91	0.000	
52	  CB	-11.321	-29.313	5.277	C.3	9	SER91	0.000	
53	  OG	-11.811	-28.077	4.853	O.3	9	SER91	0.000	
54	   N	-11.092	-28.915	8.567	N.am	10	ASP92	0.000	
55	  CA	-11.659	-28.122	9.674	C.3	10	ASP92	0.000	
56	   C	-11.633	-28.907	10.971	C.2	10	ASP92	0.000	
57	   O	-11.617	-30.143	10.995	O.2	10	ASP92	0.000	
58	  CB	-13.161	-27.839	9.395	C.3	10	ASP92	0.000	
59	  CG	-13.675	-26.548	10.036	C.2	10	ASP92	0.000	
60	 OD1	-12.882	-25.817	10.633	O.co2	10	ASP92	0.000	
61	 OD2	-14.913	-26.265	9.891	O.co2	10	ASP92	0.000	
62	   N	-10.992	-34.962	4.079	N.am	11	ASP107	0.000	
63	  CA	-11.062	-35.406	2.672	C.3	11	ASP107	0.000	
64	   C	-11.306	-36.908	2.544	C.2	11	ASP107	0.000	
65	   O	-11.704	-37.361	1.472	O.2	11	ASP107	0.000	
66	  CB	-9.760	-35.035	1.939	C.3	11	ASP107	0.000	
67	  CG	-9.629	-33.545	1.672	C.2	11	ASP107	0.000	
68	 OD1	-10.660	-32.838	1.651	O.co2	11	ASP107	0.000	
69	 OD2	-8.487	-33.083	1.464	O.co2	11	ASP107	0.000	
70	   N	-15.858	-30.724	4.391	N.am	12	PHE133	0.000	
71	  CA	-15.113	-29.475	4.420	C.3	12	PHE133	0.000	
72	   C	-15.240	-28.680	5.692	C.2	12	PHE133	0.000	
73	   O	-14.363	-27.861	5.984	O.2	12	PHE133	0.000	
74	  CB	-15.530	-28.543	3.268	C.3	12	PHE133	0.000	
75	  CG	-15.107	-28.996	1.903	C.2	12	PHE133	0.000	
76	 CD1	-13.849	-29.523	1.674	C.2	12	PHE133	0.000	
77	 CD2	-15.935	-28.777	0.824	C.2	12	PHE133	0.000	
78	 CE1	-13.456	-29.902	0.409	C.2	12	PHE133	0.000	
79	 CE2	-15.536	-29.158	-0.443	C.2	12	PHE133	0.000	
80	  CZ	-14.275	-29.711	-0.642	C.2	12	PHE133	0.000	
81	   N	-16.323	-28.854	6.424	N.am	13	CYS134	0.000	
82	  CA	-16.639	-27.969	7.554	C.3	13	CYS134	0.000	
83	   C	-17.446	-28.688	8.595	C.2	13	CYS134	0.000	
84	   O	-18.168	-29.636	8.302	O.2	13	CYS134	0.000	
85	  CB	-17.380	-26.723	7.069	C.3	13	CYS134	0.000	
86	  SG	-18.790	-27.022	5.970	S.3	13	CYS134	0.000	
87	   N	-18.457	-31.506	0.038	N.am	14	PHE149	0.000	
88	  CA	-18.457	-31.438	-1.420	C.3	14	PHE149	0.000	
89	   C	-19.667	-32.146	-2.032	C.2	14	PHE149	0.000	
90	   O	-20.137	-31.746	-3.108	O.2	14	PHE149	0.000	
91	  CB	-17.146	-32.059	-1.939	C.3	14	PHE149	0.000	
92	  CG	-16.897	-31.842	-3.409	C.2	14	PHE149	0.000	
93	 CD1	-17.402	-32.744	-4.342	C.2	14	PHE149	0.000	
94	 CD2	-16.172	-30.749	-3.858	C.2	14	PHE149	0.000	
95	 CE1	-17.160	-32.580	-5.697	C.2	14	PHE149	0.000	
96	 CE2	-15.932	-30.567	-5.215	C.2	14	PHE149	0.000	
97	  CZ	-16.439	-31.476	-6.132	C.2	14	PHE149	0.000	
98	   N	-20.857	-27.668	-3.734	N.am	15	PRO173	0.000	
99	  CA	-20.222	-27.902	-2.461	C.3	15	PRO173	0.000	
100	   C	-20.574	-26.906	-1.343	C.2	15	PRO173	0.000	
101	   O	-20.713	-25.689	-1.574	O.2	15	PRO173	0.000	
102	  CB	-18.741	-27.795	-2.806	C.3	15	PRO173	0.000	
103	  CG	-18.651	-28.347	-4.190	C.3	15	PRO173	0.000	
104	  CD	-19.914	-27.871	-4.860	C.3	15	PRO173	0.000	
105	   N	-19.505	-24.910	1.916	N.am	16	SER175	0.000	
106	  CA	-18.222	-24.352	2.372	C.3	16	SER175	0.000	
107	   C	-18.153	-24.107	3.881	C.2	16	SER175	0.000	
108	   O	-17.061	-24.051	4.447	O.2	16	SER175	0.000	
109	  CB	-17.946	-23.031	1.658	C.3	16	SER175	0.000	
110	  OG	-19.089	-22.184	1.713	O.3	16	SER175	0.000	
111	   N	-21.058	-23.056	-2.770	N.am	17	TYR191	0.000	
112	  CA	-20.680	-22.628	-4.097	C.3	17	TYR191	0.000	
113	   C	-21.844	-22.364	-5.026	C.2	17	TYR191	0.000	
114	   O	-21.644	-21.716	-6.064	O.2	17	TYR191	0.000	
115	  CB	-19.737	-23.637	-4.718	C.3	17	TYR191	0.000	
116	  CG	-18.298	-23.384	-4.382	C.2	17	TYR191	0.000	
117	 CD1	-17.877	-23.283	-3.072	C.2	17	TYR191	0.000	
118	 CD2	-17.372	-23.214	-5.374	C.2	17	TYR191	0.000	
119	 CE1	-16.553	-23.042	-2.774	C.2	17	TYR191	0.000	
120	 CE2	-16.046	-22.978	-5.086	C.2	17	TYR191	0.000	
121	  CZ	-15.643	-22.878	-3.788	C.2	17	TYR191	0.000	
122	  OH	-14.316	-22.615	-3.506	O.3	17	TYR191	0.000	
123	   N	-11.517	-20.760	0.509	N.am	18	CYS261	0.000	
124	  CA	-12.590	-20.543	1.445	C.3	18	CYS261	0.000	
125	   C	-11.939	-20.129	2.761	C.2	18	CYS261	0.000	
126	   O	-11.440	-20.951	3.535	O.2	18	CYS261	0.000	
127	  CB	-13.485	-21.778	1.554	C.3	18	CYS261	0.000	
128	  SG	-14.505	-22.000	0.062	S.3	18	CYS261	0.000	
129	   N	-11.808	-18.165	6.366	N.am	19	PHE263	0.000	
130	  CA	-12.643	-17.963	7.520	C.3	19	PHE263	0.000	
131	   C	-12.595	-16.491	7.932	C.2	19	PHE263	0.000	
132	   O	-11.580	-15.816	7.761	O.2	19	PHE263	0.000	
133	  CB	-12.110	-18.856	8.645	C.3	19	PHE263	0.000	
134	  CG	-13.163	-19.423	9.551	C.2	19	PHE263	0.000	
135	 CD1	-13.826	-20.589	9.202	C.2	19	PHE263	0.000	
136	 CD2	-13.437	-18.841	10.771	C.2	19	PHE263	0.000	
137	 CE1	-14.767	-21.146	10.052	C.2	19	PHE263	0.000	
138	 CE2	-14.390	-19.388	11.617	C.2	19	PHE263	0.000	
139	  CZ	-15.035	-20.545	11.257	C.2	19	PHE263	0.000	
140	   N	-5.562	-18.635	5.259	N.am	20	ILE305	0.000	
141	  CA	-6.856	-19.281	5.038	C.3	20	ILE305	0.000	
142	   C	-7.737	-19.312	6.284	C.2	20	ILE305	0.000	
143	   O	-8.959	-19.414	6.179	O.2	20	ILE305	0.000	
144	  CB	-6.694	-20.710	4.479	C.3	20	ILE305	0.000	
145	 CG1	-8.020	-21.168	3.839	C.3	20	ILE305	0.000	
146	 CG2	-6.226	-21.649	5.580	C.3	20	ILE305	0.000	
147	 CD1	-7.963	-22.415	3.008	C.3	20	ILE305	0.000	
148	   N	-1.181	-21.362	4.020	N.am	21	LEU321	0.000	
149	  CA	-1.051	-22.492	3.116	C.3	21	LEU321	0.000	
150	   C	0.408	-22.912	2.896	C.2	21	LEU321	0.000	
151	   O	1.289	-22.462	3.615	O.2	21	LEU321	0.000	
152	  CB	-1.789	-22.193	1.803	C.3	21	LEU321	0.000	
153	  CG	-3.291	-21.915	1.937	C.3	21	LEU321	0.000	
154	 CD1	-3.886	-21.669	0.550	C.3	21	LEU321	0.000	
155	 CD2	-4.026	-23.040	2.662	C.3	21	LEU321	0.000	
@<TRIPOS>BOND
1 1 2 1
2 2 3 1
3 2 5 1
4 3 4 2
5 3 6 1
6 6 7 1
7 7 8 1
8 7 10 1
9 8 9 2
10 8 13 1
11 10 11 1
12 10 12 1
13 13 14 1
14 14 15 1
15 14 17 1
16 15 16 2
17 15 19 1
18 17 18 1
19 19 20 1
20 20 21 1
21 20 23 1
22 21 22 2
23 23 24 1
24 25 26 1
25 26 27 1
26 26 29 1
27 27 28 2
28 27 31 1
29 29 30 1
30 31 32 1
31 32 33 1
32 32 35 1
33 33 34 2
34 36 37 1
35 37 38 1
36 38 39 2
37 38 40 1
38 40 41 1
39 41 42 1
40 41 44 1
41 42 43 2
42 42 48 1
43 44 45 1
44 44 46 1
45 45 47 1
46 48 49 1
47 49 50 1
48 49 52 1
49 50 51 2
50 50 54 1
51 52 53 1
52 54 55 1
53 55 56 1
54 55 58 1
55 56 57 2
56 58 59 1
57 59 60 2
58 59 61 1
59 62 63 1
60 63 64 1
61 63 66 1
62 64 65 2
63 66 67 1
64 67 68 2
65 67 69 1
66 70 71 1
67 71 72 1
68 71 74 1
69 72 73 2
70 72 81 1
71 74 75 1
72 75 76 2
73 75 77 1
74 76 78 1
75 77 79 2
76 78 80 2
77 79 80 1
78 81 82 1
79 82 83 1
80 82 85 1
81 83 84 2
82 85 86 1
83 87 88 1
84 88 89 1
85 88 91 1
86 89 90 2
87 91 92 1
88 92 93 2
89 92 94 1
90 93 95 1
91 94 96 2
92 95 97 2
93 96 97 1
94 98 99 1
95 98 104 1
96 99 100 1
97 99 102 1
98 100 101 2
99 102 103 1
100 103 104 1
101 105 106 1
102 106 107 1
103 106 109 1
104 107 108 2
105 109 110 1
106 111 112 1
107 112 113 1
108 112 115 1
109 113 114 2
110 115 116 1
111 116 117 2
112 116 118 1
113 117 119 1
114 118 120 2
115 119 121 2
116 120 121 1
117 121 122 1
118 123 124 1
119 124 125 1
120 124 127 1
121 125 126 2
122 127 128 1
123 129 130 1
124 130 131 1
125 130 133 1
126 131 132 2
127 133 134 1
128 134 135 2
129 134 136 1
130 135 137 1
131 136 138 2
132 137 139 2
133 138 139 1
134 140 141 1
135 141 142 1
136 141 144 1
137 142 143 2
138 144 145 1
139 144 146 1
140 145 147 1
141 148 149 1
142 149 150 1
143 149 152 1
144 150 151 2
145 152 153 1
146 153 154 1
147 153 155 1
@<TRIPOS>SUBSTRUCTURE
1	ALA47	1	RESIDUE	1 B	ALA
2	VAL48	6	RESIDUE	1 B	VAL
3	SER49	13	RESIDUE	1 B	SER
4	SER50	19	RESIDUE	1 B	SER
5	SER64	25	RESIDUE	1 B	SER
6	ALA65	31	RESIDUE	1 B	ALA
7	GLY89	36	RESIDUE	1 B	GLY
8	ILE90	40	RESIDUE	1 B	ILE
9	SER91	48	RESIDUE	1 B	SER
10	ASP92	54	RESIDUE	1 B	ASP
11	ASP107	62	RESIDUE	1 B	ASP
12	PHE133	70	RESIDUE	1 B	PHE
13	CYS134	81	RESIDUE	1 B	CYS
14	PHE149	87	RESIDUE	1 B	PHE
15	PRO173	98	RESIDUE	1 B	PRO
16	SER175	105	RESIDUE	1 B	SER
17	TYR191	111	RESIDUE	1 B	TYR
18	CYS261	123	RESIDUE	1 B	CYS
19	PHE263	129	RESIDUE	1 B	PHE
20	ILE305	140	RESIDUE	1 B	ILE
21	LEU321	148	RESIDUE	1 B	LEU
