# created with PyMOL 2.5.2
@<TRIPOS>MOLECULE
CDK6_2EUF_TargetProtein
187 179 24              
SMALL
USER_CHARGES
@<TRIPOS>ATOM
1	   N	33.743	16.971	58.331	N.am	1	ILE19	0.000	
2	  CA	32.429	17.532	58.669	C.3	1	ILE19	0.000	
3	   C	31.885	18.568	57.661	C.2	1	ILE19	0.000	
4	   O	31.241	19.548	58.061	O.2	1	ILE19	0.000	
5	  CB	32.424	18.110	60.112	C.3	1	ILE19	0.000	
6	 CG1	33.708	18.894	60.384	C.3	1	ILE19	0.000	
7	 CG2	32.265	16.997	61.129	C.3	1	ILE19	0.000	
8	 CD1	33.575	19.926	61.471	C.3	1	ILE19	0.000	
9	   N	32.141	18.347	56.368	N.am	2	GLY20	0.000	
10	  CA	31.499	19.135	55.304	C.3	2	GLY20	0.000	
11	   C	32.357	20.054	54.443	C.2	2	GLY20	0.000	
12	   O	33.277	20.704	54.935	O.2	2	GLY20	0.000	
13	   N	32.025	20.113	53.152	N.am	3	GLU21	0.000	
14	  CA	32.744	20.923	52.168	C.3	3	GLU21	0.000	
15	   C	32.283	22.386	52.189	C.2	3	GLU21	0.000	
16	   O	31.245	22.730	51.613	O.2	3	GLU21	0.000	
17	  CB	32.595	20.321	50.767	C.3	3	GLU21	0.000	
18	  CG	32.924	18.827	50.774	C.3	3	GLU21	0.000	
19	  CD	33.139	18.306	49.352	C.2	3	GLU21	0.000	
20	 OE1	33.713	17.202	49.233	O.co2	3	GLU21	0.000	
21	 OE2	32.723	19.023	48.416	O.co2	3	GLU21	0.000	
22	   N	33.077	23.237	52.846	N.am	4	GLY22	0.000	
23	  CA	32.716	24.627	53.129	C.3	4	GLY22	0.000	
24	   C	32.935	25.557	51.959	C.2	4	GLY22	0.000	
25	   O	32.891	25.129	50.803	O.2	4	GLY22	0.000	
26	   N	36.024	21.125	55.226	N.am	5	VAL27	0.000	
27	  CA	36.254	21.338	56.663	C.3	5	VAL27	0.000	
28	   C	36.335	19.984	57.397	C.2	5	VAL27	0.000	
29	   O	35.405	19.174	57.321	O.2	5	VAL27	0.000	
30	  CB	35.143	22.235	57.297	C.3	5	VAL27	0.000	
31	 CG1	35.359	22.409	58.796	C.3	5	VAL27	0.000	
32	 CG2	35.073	23.589	56.612	C.3	5	VAL27	0.000	
33	   N	38.167	22.709	64.632	N.am	6	ALA41	0.000	
34	  CA	37.568	22.685	63.285	C.3	6	ALA41	0.000	
35	   C	38.535	23.247	62.233	C.2	6	ALA41	0.000	
36	   O	38.865	24.436	62.259	O.2	6	ALA41	0.000	
37	  CB	36.237	23.450	63.267	C.3	6	ALA41	0.000	
38	   N	39.501	24.233	58.414	N.am	7	LYS43	0.000	
39	  CA	39.109	24.600	57.048	C.3	7	LYS43	0.000	
40	   C	40.347	24.621	56.155	C.2	7	LYS43	0.000	
41	   O	41.264	25.417	56.365	O.2	7	LYS43	0.000	
42	  CB	38.411	25.972	57.039	C.3	7	LYS43	0.000	
43	  CG	37.643	26.321	55.768	C.3	7	LYS43	0.000	
44	  CD	36.578	27.382	56.075	C.3	7	LYS43	0.000	
45	  CE	35.893	27.924	54.802	C.3	7	LYS43	0.000	
46	  NZ	34.819	28.953	55.074	N.4	7	LYS43	0.000	
47	   N	35.880	36.815	55.351	N.am	8	GLU61	0.000	
48	  CA	35.313	35.992	56.419	C.3	8	GLU61	0.000	
49	   C	36.130	36.000	57.717	C.2	8	GLU61	0.000	
50	   O	35.563	36.061	58.816	O.2	8	GLU61	0.000	
51	  CB	35.142	34.557	55.906	C.3	8	GLU61	0.000	
52	  CG	34.813	33.515	56.954	C.3	8	GLU61	0.000	
53	  CD	35.059	32.093	56.463	C.2	8	GLU61	0.000	
54	 OE1	35.900	31.912	55.546	O.co2	8	GLU61	0.000	
55	 OE2	34.415	31.146	57.004	O.co2	8	GLU61	0.000	
56	   N	30.279	31.357	65.875	N.am	9	VAL77	0.000	
57	  CA	31.427	30.476	65.882	C.3	9	VAL77	0.000	
58	   C	32.691	31.290	66.218	C.2	9	VAL77	0.000	
59	   O	32.684	32.515	66.083	O.2	9	VAL77	0.000	
60	  CB	31.506	29.662	64.560	C.3	9	VAL77	0.000	
61	 CG1	32.025	30.495	63.419	C.3	9	VAL77	0.000	
62	 CG2	32.338	28.425	64.749	C.3	9	VAL77	0.000	
63	   N	39.013	26.643	63.772	N.am	10	PHE98	0.000	
64	  CA	37.886	27.163	64.539	C.3	10	PHE98	0.000	
65	   C	37.537	26.244	65.690	C.2	10	PHE98	0.000	
66	   O	38.033	25.116	65.776	O.2	10	PHE98	0.000	
67	  CB	36.642	27.255	63.657	C.3	10	PHE98	0.000	
68	  CG	36.798	28.136	62.459	C.2	10	PHE98	0.000	
69	 CD1	37.178	27.601	61.235	C.2	10	PHE98	0.000	
70	 CD2	36.542	29.498	62.547	C.2	10	PHE98	0.000	
71	 CE1	37.323	28.414	60.124	C.2	10	PHE98	0.000	
72	 CE2	36.683	30.318	61.443	C.2	10	PHE98	0.000	
73	  CZ	37.068	29.775	60.230	C.2	10	PHE98	0.000	
74	   N	36.647	26.711	66.561	N.am	11	GLU99	0.000	
75	  CA	36.054	25.826	67.554	C.3	11	GLU99	0.000	
76	   C	35.208	24.762	66.837	C.2	11	GLU99	0.000	
77	   O	34.497	25.062	65.867	O.2	11	GLU99	0.000	
78	  CB	35.255	26.610	68.615	C.3	11	GLU99	0.000	
79	  CG	33.962	27.275	68.150	C.3	11	GLU99	0.000	
80	  CD	33.119	27.841	69.291	C.2	11	GLU99	0.000	
81	 OE1	33.140	27.303	70.415	O.co2	11	GLU99	0.000	
82	 OE2	32.417	28.842	69.069	O.co2	11	GLU99	0.000	
83	   N	35.333	23.514	67.281	N.am	12	HIE100	0.000	
84	  CA	34.507	22.433	66.755	C.3	12	HIE100	0.000	
85	   C	33.144	22.422	67.445	C.2	12	HIE100	0.000	
86	   O	33.043	22.698	68.641	O.2	12	HIE100	0.000	
87	  CB	35.195	21.077	66.910	C.3	12	HIE100	0.000	
88	  CG	34.316	19.921	66.554	C.2	12	HIE100	0.000	
89	 CD2	33.775	19.545	65.371	C.2	12	HIE100	0.000	
90	 ND1	33.869	19.011	67.486	N.2	12	HIE100	0.000	
91	 CE1	33.106	18.112	66.889	C.2	12	HIE100	0.000	
92	 NE2	33.032	18.414	65.605	N.pl3	12	HIE100	0.000	
93	   N	32.100	22.134	66.676	N.am	13	VAL101	0.000	
94	  CA	30.752	22.020	67.214	C.3	13	VAL101	0.000	
95	   C	30.206	20.675	66.756	C.2	13	VAL101	0.000	
96	   O	30.524	20.201	65.666	O.2	13	VAL101	0.000	
97	  CB	29.856	23.248	66.846	C.3	13	VAL101	0.000	
98	 CG1	28.392	22.988	67.111	C.3	13	VAL101	0.000	
99	 CG2	30.283	24.460	67.641	C.3	13	VAL101	0.000	
100	   N	29.402	20.065	67.618	N.am	14	ASP102	0.000	
101	  CA	29.112	18.638	67.564	C.3	14	ASP102	0.000	
102	   C	28.404	18.177	66.290	C.2	14	ASP102	0.000	
103	   O	28.716	17.122	65.728	O.2	14	ASP102	0.000	
104	  CB	28.296	18.250	68.798	C.3	14	ASP102	0.000	
105	  CG	28.092	16.760	68.913	C.2	14	ASP102	0.000	
106	 OD1	29.070	16.002	68.718	O.co2	14	ASP102	0.000	
107	 OD2	26.986	16.261	69.198	O.co2	14	ASP102	0.000	
108	   N	27.444	18.981	65.856	N.am	15	GLN103	0.000	
109	  CA	26.623	18.661	64.712	C.3	15	GLN103	0.000	
110	   C	26.058	19.969	64.208	C.2	15	GLN103	0.000	
111	   O	26.219	21.005	64.857	O.2	15	GLN103	0.000	
112	  CB	25.494	17.727	65.122	C.3	15	GLN103	0.000	
113	  CG	24.633	18.285	66.243	C.3	15	GLN103	0.000	
114	  CD	23.375	17.466	66.500	C.2	15	GLN103	0.000	
115	 NE2	22.566	17.913	67.462	N.pl3	15	GLN103	0.000	
116	 OE1	23.126	16.441	65.839	O.2	15	GLN103	0.000	
117	   N	25.407	19.920	63.050	N.am	16	ASP104	0.000	
118	  CA	24.716	21.084	62.499	C.3	16	ASP104	0.000	
119	   C	23.219	20.929	62.744	C.2	16	ASP104	0.000	
120	   O	22.795	19.909	63.280	O.2	16	ASP104	0.000	
121	  CB	25.022	21.227	61.001	C.3	16	ASP104	0.000	
122	  CG	24.429	20.102	60.161	C.2	16	ASP104	0.000	
123	 OD1	23.990	19.071	60.721	O.co2	16	ASP104	0.000	
124	 OD2	24.370	20.167	58.916	O.co2	16	ASP104	0.000	
125	   N	21.010	20.478	60.372	N.am	17	THR106	0.000	
126	  CA	20.594	19.410	59.426	C.3	17	THR106	0.000	
127	   C	20.609	18.037	60.086	C.2	17	THR106	0.000	
128	   O	19.548	17.442	60.283	O.2	17	THR106	0.000	
129	  CB	21.442	19.416	58.092	C.3	17	THR106	0.000	
130	 CG2	21.499	18.027	57.444	C.3	17	THR106	0.000	
131	 OG1	20.779	20.192	57.085	O.3	17	THR106	0.000	
132	   N	21.812	17.571	60.438	N.am	18	THR107	0.000	
133	  CA	22.041	16.275	61.097	C.3	18	THR107	0.000	
134	   C	21.193	16.119	62.354	C.2	18	THR107	0.000	
135	   O	20.659	15.047	62.622	O.2	18	THR107	0.000	
136	  CB	23.550	16.103	61.432	C.3	18	THR107	0.000	
137	 CG2	23.823	14.798	62.181	C.3	18	THR107	0.000	
138	 OG1	24.292	15.944	60.219	O.3	18	THR107	0.000	
139	   N	22.597	23.913	57.344	N.am	19	GLN149	0.000	
140	  CA	23.976	23.406	57.381	C.3	19	GLN149	0.000	
141	   C	24.988	24.373	57.997	C.2	19	GLN149	0.000	
142	   O	26.050	23.954	58.464	O.2	19	GLN149	0.000	
143	  CB	24.423	23.008	55.994	C.3	19	GLN149	0.000	
144	  CG	23.634	21.853	55.492	C.3	19	GLN149	0.000	
145	  CD	23.024	22.118	54.143	C.2	19	GLN149	0.000	
146	 NE2	21.767	21.704	53.977	N.pl3	19	GLN149	0.000	
147	 OE1	23.676	22.681	53.251	O.2	19	GLN149	0.000	
148	   N	24.659	25.661	57.989	N.am	20	ASN150	0.000	
149	  CA	25.517	26.679	58.588	C.3	20	ASN150	0.000	
150	   C	25.156	26.946	60.062	C.2	20	ASN150	0.000	
151	   O	25.946	27.531	60.804	O.2	20	ASN150	0.000	
152	  CB	25.490	27.981	57.761	C.3	20	ASN150	0.000	
153	  CG	26.226	27.857	56.405	C.2	20	ASN150	0.000	
154	 ND2	26.002	28.833	55.531	N.pl3	20	ASN150	0.000	
155	 OD1	26.986	26.912	56.158	O.2	20	ASN150	0.000	
156	   N	24.865	25.764	63.683	N.am	21	LEU152	0.000	
157	  CA	25.492	24.710	64.468	C.3	21	LEU152	0.000	
158	   C	24.893	24.580	65.857	C.2	21	LEU152	0.000	
159	   O	24.609	25.581	66.517	O.2	21	LEU152	0.000	
160	  CB	26.997	24.951	64.581	C.3	21	LEU152	0.000	
161	  CG	27.774	25.178	63.288	C.3	21	LEU152	0.000	
162	 CD1	29.219	25.274	63.645	C.3	21	LEU152	0.000	
163	 CD2	27.526	24.061	62.282	C.3	21	LEU152	0.000	
164	   N	27.616	29.670	61.506	N.am	22	ALA162	0.000	
165	  CA	28.914	29.323	60.940	C.3	22	ALA162	0.000	
166	   C	29.044	29.745	59.486	C.2	22	ALA162	0.000	
167	   O	28.146	30.384	58.947	O.2	22	ALA162	0.000	
168	  CB	29.190	27.861	61.093	C.3	22	ALA162	0.000	
169	   N	30.167	29.374	58.864	N.am	23	ASP163	0.000	
170	  CA	30.554	29.823	57.522	C.3	23	ASP163	0.000	
171	   C	30.213	31.287	57.267	C.2	23	ASP163	0.000	
172	   O	29.108	31.602	56.826	O.2	23	ASP163	0.000	
173	  CB	29.941	28.934	56.429	C.3	23	ASP163	0.000	
174	  CG	30.542	29.217	55.048	C.2	23	ASP163	0.000	
175	 OD1	30.848	30.404	54.730	O.co2	23	ASP163	0.000	
176	 OD2	30.753	28.307	54.212	O.co2	23	ASP163	0.000	
177	   N	31.172	32.165	57.541	N.am	24	PHE164	0.000	
178	  CA	30.999	33.611	57.328	C.3	24	PHE164	0.000	
179	   C	31.595	34.107	56.010	C.2	24	PHE164	0.000	
180	   O	31.865	35.304	55.843	O.2	24	PHE164	0.000	
181	  CB	31.573	34.405	58.504	C.3	24	PHE164	0.000	
182	  CG	30.645	34.489	59.670	C.2	24	PHE164	0.000	
183	 CD1	29.873	35.628	59.878	C.2	24	PHE164	0.000	
184	 CD2	30.504	33.420	60.542	C.2	24	PHE164	0.000	
185	 CE1	28.999	35.716	60.955	C.2	24	PHE164	0.000	
186	 CE2	29.633	33.502	61.615	C.2	24	PHE164	0.000	
187	  CZ	28.882	34.652	61.819	C.2	24	PHE164	0.000	
@<TRIPOS>BOND
1 1 2 1
2 2 3 1
3 2 5 1
4 3 4 2
5 3 9 1
6 5 6 1
7 5 7 1
8 6 8 1
9 9 10 1
10 10 11 1
11 11 12 2
12 11 13 1
13 13 14 1
14 14 15 1
15 14 17 1
16 15 16 2
17 15 22 1
18 17 18 1
19 18 19 1
20 19 20 2
21 19 21 1
22 22 23 1
23 23 24 1
24 24 25 2
25 26 27 1
26 27 28 1
27 27 30 1
28 28 29 2
29 30 31 1
30 30 32 1
31 33 34 1
32 34 35 1
33 34 37 1
34 35 36 2
35 38 39 1
36 39 40 1
37 39 42 1
38 40 41 2
39 42 43 1
40 43 44 1
41 44 45 1
42 45 46 1
43 47 48 1
44 48 49 1
45 48 51 1
46 49 50 2
47 51 52 1
48 52 53 1
49 53 54 2
50 53 55 1
51 56 57 1
52 57 58 1
53 57 60 1
54 58 59 2
55 60 61 1
56 60 62 1
57 63 64 1
58 64 65 1
59 64 67 1
60 65 66 2
61 65 74 1
62 67 68 1
63 68 69 2
64 68 70 1
65 69 71 1
66 70 72 2
67 71 73 2
68 72 73 1
69 74 75 1
70 75 76 1
71 75 78 1
72 76 77 2
73 76 83 1
74 78 79 1
75 79 80 1
76 80 81 2
77 80 82 1
78 83 84 1
79 84 85 1
80 84 87 1
81 85 86 2
82 85 93 1
83 87 88 1
84 88 89 2
85 88 90 1
86 89 92 1
87 90 91 2
88 91 92 1
89 93 94 1
90 94 95 1
91 94 97 1
92 95 96 2
93 95 100 1
94 97 98 1
95 97 99 1
96 100 101 1
97 101 102 1
98 101 104 1
99 102 103 2
100 102 108 1
101 104 105 1
102 105 106 2
103 105 107 1
104 108 109 1
105 109 110 1
106 109 112 1
107 110 111 2
108 110 117 1
109 112 113 1
110 113 114 1
111 114 115 1
112 114 116 2
113 117 118 1
114 118 119 1
115 118 121 1
116 119 120 2
117 121 122 1
118 122 123 2
119 122 124 1
120 125 126 1
121 126 127 1
122 126 129 1
123 127 128 2
124 127 132 1
125 129 130 1
126 129 131 1
127 132 133 1
128 133 134 1
129 133 136 1
130 134 135 2
131 136 137 1
132 136 138 1
133 139 140 1
134 140 141 1
135 140 143 1
136 141 142 2
137 141 148 1
138 143 144 1
139 144 145 1
140 145 146 1
141 145 147 2
142 148 149 1
143 149 150 1
144 149 152 1
145 150 151 2
146 152 153 1
147 153 154 1
148 153 155 2
149 156 157 1
150 157 158 1
151 157 160 1
152 158 159 2
153 160 161 1
154 161 162 1
155 161 163 1
156 164 165 1
157 165 166 1
158 165 168 1
159 166 167 2
160 166 169 1
161 169 170 1
162 170 171 1
163 170 173 1
164 171 172 2
165 171 177 1
166 173 174 1
167 174 175 2
168 174 176 1
169 177 178 1
170 178 179 1
171 178 181 1
172 179 180 2
173 181 182 1
174 182 183 2
175 182 184 1
176 183 185 1
177 184 186 2
178 185 187 2
179 186 187 1
@<TRIPOS>SUBSTRUCTURE
1	ILE19	1	RESIDUE	1 B	ILE
2	GLY20	9	RESIDUE	1 B	GLY
3	GLU21	13	RESIDUE	1 B	GLU
4	GLY22	22	RESIDUE	1 B	GLY
5	VAL27	26	RESIDUE	1 B	VAL
6	ALA41	33	RESIDUE	1 B	ALA
7	LYS43	38	RESIDUE	1 B	LYS
8	GLU61	47	RESIDUE	1 B	GLU
9	VAL77	56	RESIDUE	1 B	VAL
10	PHE98	63	RESIDUE	1 B	PHE
11	GLU99	74	RESIDUE	1 B	GLU
12	HIE100	83	RESIDUE	1 B	HIE
13	VAL101	93	RESIDUE	1 B	VAL
14	ASP102	100	RESIDUE	1 B	ASP
15	GLN103	108	RESIDUE	1 B	GLN
16	ASP104	117	RESIDUE	1 B	ASP
17	THR106	125	RESIDUE	1 B	THR
18	THR107	132	RESIDUE	1 B	THR
19	GLN149	139	RESIDUE	1 B	GLN
20	ASN150	148	RESIDUE	1 B	ASN
21	LEU152	156	RESIDUE	1 B	LEU
22	ALA162	164	RESIDUE	1 B	ALA
23	ASP163	169	RESIDUE	1 B	ASP
24	PHE164	177	RESIDUE	1 B	PHE
