# created with PyMOL 2.5.2
@<TRIPOS>MOLECULE
BRAF_6H0G_E3ligase
131 137 13              
SMALL
USER_CHARGES
@<TRIPOS>ATOM
1	   N	-3.230	47.734	-76.206	N.am	1	VAL350	0.000	
2	  CA	-4.023	48.051	-77.388	C.3	1	VAL350	0.000	
3	   C	-3.315	49.101	-78.214	C.2	1	VAL350	0.000	
4	   O	-2.633	49.956	-77.664	O.2	1	VAL350	0.000	
5	  CB	-5.458	48.466	-77.033	C.3	1	VAL350	0.000	
6	 CG1	-5.489	49.808	-76.355	C.3	1	VAL350	0.000	
7	 CG2	-6.355	48.471	-78.260	C.3	1	VAL350	0.000	
8	   N	-3.524	49.063	-79.527	N.am	2	ASN351	0.000	
9	  CA	-2.907	49.961	-80.474	C.3	2	ASN351	0.000	
10	   C	-3.900	50.933	-81.054	C.2	2	ASN351	0.000	
11	   O	-5.102	50.791	-80.838	O.2	2	ASN351	0.000	
12	  CB	-2.217	49.164	-81.557	C.3	2	ASN351	0.000	
13	  CG	-3.080	48.797	-82.715	C.2	2	ASN351	0.000	
14	 ND2	-2.549	48.806	-83.899	N.pl3	2	ASN351	0.000	
15	 OD1	-4.248	48.518	-82.561	O.2	2	ASN351	0.000	
16	   N	-3.429	51.903	-81.844	N.am	3	PRO352	0.000	
17	  CA	-4.352	52.867	-82.418	C.3	3	PRO352	0.000	
18	   C	-5.449	52.302	-83.310	C.2	3	PRO352	0.000	
19	   O	-6.466	52.963	-83.486	O.2	3	PRO352	0.000	
20	  CB	-3.433	53.797	-83.193	C.3	3	PRO352	0.000	
21	  CG	-2.127	53.603	-82.628	C.3	3	PRO352	0.000	
22	  CD	-2.049	52.221	-82.227	C.3	3	PRO352	0.000	
23	   N	-5.248	51.125	-83.894	N.am	4	HIE353	0.000	
24	  CA	-6.227	50.491	-84.761	C.3	4	HIE353	0.000	
25	   C	-6.990	49.320	-84.108	C.2	4	HIE353	0.000	
26	   O	-7.532	48.477	-84.816	O.2	4	HIE353	0.000	
27	  CB	-5.567	50.060	-86.075	C.3	4	HIE353	0.000	
28	  CG	-4.987	51.183	-86.882	C.2	4	HIE353	0.000	
29	 CD2	-3.771	51.766	-86.796	C.2	4	HIE353	0.000	
30	 ND1	-5.686	51.764	-87.925	N.2	4	HIE353	0.000	
31	 CE1	-4.879	52.688	-88.420	C.2	4	HIE353	0.000	
32	 NE2	-3.721	52.724	-87.768	N.pl3	4	HIE353	0.000	
33	   N	-1.912	43.420	-78.440	N.am	5	HIE357	0.000	
34	  CA	-0.613	42.754	-78.477	C.3	5	HIE357	0.000	
35	   C	-0.202	42.300	-77.092	C.2	5	HIE357	0.000	
36	   O	-0.036	43.141	-76.207	O.2	5	HIE357	0.000	
37	  CB	0.457	43.685	-79.045	C.3	5	HIE357	0.000	
38	  CG	0.205	44.130	-80.443	C.2	5	HIE357	0.000	
39	 CD2	-0.483	45.191	-80.907	C.2	5	HIE357	0.000	
40	 ND1	0.719	43.436	-81.513	N.2	5	HIE357	0.000	
41	 CE1	0.318	44.088	-82.590	C.2	5	HIE357	0.000	
42	 NE2	-0.400	45.150	-82.270	N.pl3	5	HIE357	0.000	
43	   N	4.378	58.083	-80.958	N.am	6	GLU377	0.000	
44	  CA	2.959	58.094	-81.255	C.3	6	GLU377	0.000	
45	   C	2.253	56.943	-80.588	C.2	6	GLU377	0.000	
46	   O	2.512	55.796	-80.934	O.2	6	GLU377	0.000	
47	  CB	2.728	58.058	-82.769	C.3	6	GLU377	0.000	
48	  CG	1.273	58.179	-83.180	C.3	6	GLU377	0.000	
49	  CD	1.037	58.362	-84.665	C.2	6	GLU377	0.000	
50	 OE1	-0.102	58.726	-85.053	O.co2	6	GLU377	0.000	
51	 OE2	1.990	58.112	-85.441	O.co2	6	GLU377	0.000	
52	   N	1.384	57.249	-79.614	N.am	7	HIS378	0.000	
53	  CA	0.574	56.267	-78.898	C.3	7	HIS378	0.000	
54	   C	1.424	55.223	-78.171	C.2	7	HIS378	0.000	
55	   O	1.030	54.048	-78.081	O.2	7	HIS378	0.000	
56	  CB	-0.384	55.580	-79.881	C.3	7	HIS378	0.000	
57	  CG	-1.622	55.035	-79.254	C.2	7	HIS378	0.000	
58	 CD2	-2.745	55.680	-78.879	C.2	7	HIS378	0.000	
59	 ND1	-1.777	53.697	-79.004	N.pl3	7	HIS378	0.000	
60	 CE1	-2.976	53.573	-78.468	C.2	7	HIS378	0.000	
61	 NE2	-3.592	54.740	-78.374	N.pl3	7	HIS378	0.000	
62	   N	2.586	55.647	-77.643	N.am	8	SER379	0.000	
63	  CA	3.496	54.727	-76.966	C.3	8	SER379	0.000	
64	   C	2.910	54.178	-75.658	C.2	8	SER379	0.000	
65	   O	2.302	54.928	-74.893	O.2	8	SER379	0.000	
66	  CB	4.832	55.395	-76.698	C.3	8	SER379	0.000	
67	  OG	5.723	54.487	-76.069	O.3	8	SER379	0.000	
68	   N	3.092	52.877	-75.410	N.am	9	TRP380	0.000	
69	  CA	2.597	52.221	-74.208	C.3	9	TRP380	0.000	
70	   C	3.439	52.476	-72.978	C.2	9	TRP380	0.000	
71	   O	2.936	52.325	-71.862	O.2	9	TRP380	0.000	
72	  CB	2.488	50.728	-74.431	C.3	9	TRP380	0.000	
73	  CG	1.543	50.343	-75.509	C.2	9	TRP380	0.000	
74	 CD1	0.375	50.944	-75.827	C.2	9	TRP380	0.000	
75	 CD2	1.669	49.240	-76.386	C.2	9	TRP380	0.000	
76	 CE2	0.540	49.236	-77.220	C.3	9	TRP380	0.000	
77	 CE3	2.630	48.252	-76.562	C.2	9	TRP380	0.000	
78	 NE1	-0.208	50.315	-76.881	N.pl3	9	TRP380	0.000	
79	 CZ2	0.352	48.292	-78.217	C.2	9	TRP380	0.000	
80	 CZ3	2.436	47.309	-77.547	C.2	9	TRP380	0.000	
81	 CH2	1.308	47.333	-78.359	C.2	9	TRP380	0.000	
82	   N	4.708	52.864	-73.180	N.am	10	PHE381	0.000	
83	  CA	5.663	53.134	-72.122	C.3	10	PHE381	0.000	
84	   C	6.115	54.563	-72.212	C.2	10	PHE381	0.000	
85	   O	7.091	54.850	-72.906	O.2	10	PHE381	0.000	
86	  CB	6.859	52.219	-72.245	C.3	10	PHE381	0.000	
87	  CG	6.488	50.775	-72.232	C.2	10	PHE381	0.000	
88	 CD1	5.985	50.168	-73.365	C.2	10	PHE381	0.000	
89	 CD2	6.678	50.006	-71.101	C.2	10	PHE381	0.000	
90	 CE1	5.641	48.840	-73.355	C.2	10	PHE381	0.000	
91	 CE2	6.340	48.673	-71.097	C.2	10	PHE381	0.000	
92	  CZ	5.821	48.097	-72.221	C.2	10	PHE381	0.000	
93	   N	9.253	53.944	-80.029	N.am	11	TRP386	0.000	
94	  CA	9.247	52.627	-80.616	C.3	11	TRP386	0.000	
95	   C	9.689	52.629	-82.073	C.2	11	TRP386	0.000	
96	   O	9.480	53.606	-82.783	O.2	11	TRP386	0.000	
97	  CB	7.862	51.980	-80.459	C.3	11	TRP386	0.000	
98	  CG	6.761	52.730	-81.106	C.2	11	TRP386	0.000	
99	 CD1	5.931	53.629	-80.519	C.2	11	TRP386	0.000	
100	 CD2	6.393	52.680	-82.479	C.2	11	TRP386	0.000	
101	 CE2	5.345	53.592	-82.662	C.2	11	TRP386	0.000	
102	 CE3	6.866	51.974	-83.587	C.2	11	TRP386	0.000	
103	 NE1	5.067	54.140	-81.442	N.pl3	11	TRP386	0.000	
104	 CZ2	4.752	53.801	-83.899	C.2	11	TRP386	0.000	
105	 CZ3	6.280	52.191	-84.811	C.2	11	TRP386	0.000	
106	 CH2	5.223	53.079	-84.955	C.2	11	TRP386	0.000	
107	   N	8.770	45.704	-81.303	N.am	12	TRP400	0.000	
108	  CA	9.257	47.065	-81.403	C.3	12	TRP400	0.000	
109	   C	10.458	47.295	-80.504	C.2	12	TRP400	0.000	
110	   O	10.650	46.577	-79.524	O.2	12	TRP400	0.000	
111	  CB	8.138	48.057	-81.052	C.3	12	TRP400	0.000	
112	  CG	6.843	47.857	-81.787	C.2	12	TRP400	0.000	
113	 CD1	6.459	48.444	-82.952	C.2	12	TRP400	0.000	
114	 CD2	5.771	47.002	-81.401	C.2	12	TRP400	0.000	
115	 CE2	4.775	47.101	-82.391	C.2	12	TRP400	0.000	
116	 CE3	5.573	46.116	-80.340	C.2	12	TRP400	0.000	
117	 NE1	5.220	47.992	-83.323	N.pl3	12	TRP400	0.000	
118	 CZ2	3.598	46.363	-82.338	C.2	12	TRP400	0.000	
119	 CZ3	4.392	45.413	-80.274	C.2	12	TRP400	0.000	
120	 CH2	3.414	45.559	-81.252	C.2	12	TRP400	0.000	
121	   N	12.015	50.056	-78.119	N.am	13	PHE402	0.000	
122	  CA	11.775	51.252	-77.332	C.3	13	PHE402	0.000	
123	   C	13.084	51.913	-76.998	C.2	13	PHE402	0.000	
124	   O	13.983	51.283	-76.448	O.2	13	PHE402	0.000	
125	  CB	11.006	50.923	-76.065	C.3	13	PHE402	0.000	
126	  CG	9.601	50.482	-76.322	C.2	13	PHE402	0.000	
127	 CD1	9.316	49.164	-76.608	C.2	13	PHE402	0.000	
128	 CD2	8.557	51.384	-76.275	C.2	13	PHE402	0.000	
129	 CE1	8.017	48.760	-76.846	C.2	13	PHE402	0.000	
130	 CE2	7.256	50.975	-76.519	C.2	13	PHE402	0.000	
131	  CZ	6.992	49.661	-76.787	C.2	13	PHE402	0.000	
@<TRIPOS>BOND
1 1 2 1
2 2 3 1
3 2 5 1
4 3 4 2
5 3 8 1
6 5 6 1
7 5 7 1
8 8 9 1
9 9 10 1
10 9 12 1
11 10 11 2
12 10 16 1
13 12 13 1
14 13 14 1
15 13 15 2
16 16 17 1
17 16 22 1
18 17 18 1
19 17 20 1
20 18 19 2
21 18 23 1
22 20 21 1
23 21 22 1
24 23 24 1
25 24 25 1
26 24 27 1
27 25 26 2
28 27 28 1
29 28 29 2
30 28 30 1
31 29 32 1
32 30 31 2
33 31 32 1
34 33 34 1
35 34 35 1
36 34 37 1
37 35 36 2
38 37 38 1
39 38 39 2
40 38 40 1
41 39 42 1
42 40 41 2
43 41 42 1
44 43 44 1
45 44 45 1
46 44 47 1
47 45 46 2
48 45 52 1
49 47 48 1
50 48 49 1
51 49 50 2
52 49 51 1
53 52 53 1
54 53 54 1
55 53 56 1
56 54 55 2
57 54 62 1
58 56 57 1
59 57 58 2
60 57 59 1
61 58 61 1
62 59 60 2
63 60 61 1
64 62 63 1
65 63 64 1
66 63 66 1
67 64 65 2
68 64 68 1
69 66 67 1
70 68 69 1
71 69 70 1
72 69 72 1
73 70 71 2
74 70 82 1
75 72 73 1
76 73 74 2
77 73 75 1
78 74 78 1
79 75 76 2
80 75 77 1
81 76 79 1
82 77 80 2
83 76 78 1
84 79 81 2
85 80 81 1
86 82 83 1
87 83 84 1
88 83 86 1
89 84 85 2
90 86 87 1
91 87 88 2
92 87 89 1
93 88 90 1
94 89 91 2
95 90 92 2
96 91 92 1
97 93 94 1
98 94 95 1
99 94 97 1
100 95 96 2
101 97 98 1
102 98 99 2
103 98 100 1
104 99 103 1
105 100 101 2
106 100 102 1
107 101 104 1
108 102 105 2
109 101 103 1
110 104 106 2
111 105 106 1
112 107 108 1
113 108 109 1
114 108 111 1
115 109 110 2
116 111 112 1
117 112 113 2
118 112 114 1
119 113 117 1
120 114 115 2
121 114 116 1
122 115 118 1
123 116 119 2
124 115 117 1
125 118 120 2
126 119 120 1
127 121 122 1
128 122 123 1
129 122 125 1
130 123 124 2
131 125 126 1
132 126 127 2
133 126 128 1
134 127 129 1
135 128 130 2
136 129 131 2
137 130 131 1
@<TRIPOS>SUBSTRUCTURE
1	VAL350	1	RESIDUE	1 A	VAL
2	ASN351	8	RESIDUE	1 A	ASN
3	PRO352	16	RESIDUE	1 A	PRO
4	HIE353	23	RESIDUE	1 A	HIE
5	HIE357	33	RESIDUE	1 A	HIE
6	GLU377	43	RESIDUE	1 A	GLU
7	HIS378	52	RESIDUE	1 A	HIS
8	SER379	62	RESIDUE	1 A	SER
9	TRP380	68	RESIDUE	1 A	TRP
10	PHE381	82	RESIDUE	1 A	PHE
11	TRP386	93	RESIDUE	1 A	TRP
12	TRP400	107	RESIDUE	1 A	TRP
13	PHE402	121	RESIDUE	1 A	PHE
