# created with PyMOL 2.5.2
@<TRIPOS>MOLECULE
BRD4_4TZ4_E3ligase
131 137 13              
SMALL
USER_CHARGES
@<TRIPOS>ATOM
1	   N	-38.363	50.462	-94.181	N.am	1	VAL350	0.000	
2	  CA	-38.063	51.845	-94.564	C.3	1	VAL350	0.000	
3	   C	-39.228	52.478	-95.285	C.2	1	VAL350	0.000	
4	   O	-39.890	51.830	-96.094	O.2	1	VAL350	0.000	
5	  CB	-36.858	51.971	-95.531	C.3	1	VAL350	0.000	
6	 CG1	-35.752	52.833	-94.942	C.3	1	VAL350	0.000	
7	 CG2	-36.353	50.619	-95.999	C.3	1	VAL350	0.000	
8	   N	-39.454	53.760	-95.029	N.am	2	ASN351	0.000	
9	  CA	-40.392	54.510	-95.840	C.3	2	ASN351	0.000	
10	   C	-39.672	55.182	-97.007	C.2	2	ASN351	0.000	
11	   O	-38.467	54.986	-97.175	O.2	2	ASN351	0.000	
12	  CB	-41.180	55.513	-94.991	C.3	2	ASN351	0.000	
13	  CG	-40.337	56.668	-94.497	C.2	2	ASN351	0.000	
14	 ND2	-40.849	57.360	-93.493	N.pl3	2	ASN351	0.000	
15	 OD1	-39.244	56.942	-95.008	O.2	2	ASN351	0.000	
16	   N	-40.405	55.971	-97.822	N.am	3	PRO352	0.000	
17	  CA	-39.795	56.573	-99.003	C.3	3	PRO352	0.000	
18	   C	-38.755	57.658	-98.693	C.2	3	PRO352	0.000	
19	   O	-37.811	57.832	-99.465	O.2	3	PRO352	0.000	
20	  CB	-40.995	57.163	-99.742	C.3	3	PRO352	0.000	
21	  CG	-42.165	56.378	-99.251	C.3	3	PRO352	0.000	
22	  CD	-41.863	56.190	-97.810	C.3	3	PRO352	0.000	
23	   N	-38.919	58.374	-97.583	N.am	4	HIS353	0.000	
24	  CA	-37.950	59.409	-97.199	C.3	4	HIS353	0.000	
25	   C	-36.771	58.839	-96.450	C.2	4	HIS353	0.000	
26	   O	-35.925	59.584	-95.948	O.2	4	HIS353	0.000	
27	  CB	-38.606	60.539	-96.396	C.3	4	HIS353	0.000	
28	  CG	-39.854	61.117	-97.038	C.2	4	HIS353	0.000	
29	 CD2	-40.953	61.774	-96.474	C.2	4	HIS353	0.000	
30	 ND1	-40.076	61.082	-98.371	N.pl3	4	HIS353	0.000	
31	 CE1	-41.260	61.672	-98.646	C.2	4	HIS353	0.000	
32	 NE2	-41.792	62.099	-97.487	N.pl3	4	HIS353	0.000	
33	   N	-39.040	52.000	-89.688	N.am	5	HIS357	0.000	
34	  CA	-40.161	51.678	-88.787	C.3	5	HIS357	0.000	
35	   C	-40.244	50.221	-88.473	C.2	5	HIS357	0.000	
36	   O	-40.504	49.397	-89.352	O.2	5	HIS357	0.000	
37	  CB	-41.502	52.103	-89.386	C.3	5	HIS357	0.000	
38	  CG	-41.729	53.584	-89.392	C.2	5	HIS357	0.000	
39	 CD2	-41.796	54.494	-90.444	C.2	5	HIS357	0.000	
40	 ND1	-41.939	54.285	-88.268	N.pl3	5	HIS357	0.000	
41	 CE1	-42.123	55.580	-88.577	C.2	5	HIS357	0.000	
42	 NE2	-42.029	55.708	-89.908	N.pl3	5	HIS357	0.000	
43	   N	-49.086	52.563	-102.462	N.am	6	GLU377	0.000	
44	  CA	-47.825	53.256	-102.716	C.3	6	GLU377	0.000	
45	   C	-46.750	52.928	-101.662	C.2	6	GLU377	0.000	
46	   O	-46.858	53.334	-100.507	O.2	6	GLU377	0.000	
47	  CB	-48.093	54.759	-102.746	C.3	6	GLU377	0.000	
48	  CG	-47.197	55.554	-103.666	C.3	6	GLU377	0.000	
49	  CD	-47.751	56.947	-103.977	C.2	6	GLU377	0.000	
50	 OE1	-48.975	57.080	-104.269	O.co2	6	GLU377	0.000	
51	 OE2	-46.951	57.919	-103.950	O.co2	6	GLU377	0.000	
52	   N	-45.730	52.176	-102.073	N.am	7	HIS378	0.000	
53	  CA	-44.578	51.847	-101.222	C.3	7	HIS378	0.000	
54	   C	-44.990	51.000	-100.054	C.2	7	HIS378	0.000	
55	   O	-44.358	51.044	-99.001	O.2	7	HIS378	0.000	
56	  CB	-43.869	53.128	-100.755	C.3	7	HIS378	0.000	
57	  CG	-42.408	52.941	-100.382	C.2	7	HIS378	0.000	
58	 CD2	-41.265	52.802	-101.177	C.2	7	HIS378	0.000	
59	 ND1	-41.981	52.922	-99.104	N.pl3	7	HIS378	0.000	
60	 CE1	-40.640	52.765	-99.078	C.2	7	HIS378	0.000	
61	 NE2	-40.205	52.693	-100.345	N.pl3	7	HIS378	0.000	
62	   N	-46.051	50.211	-100.228	N.am	8	SER379	0.000	
63	  CA	-46.562	49.352	-99.148	C.3	8	SER379	0.000	
64	   C	-45.638	48.191	-98.820	C.2	8	SER379	0.000	
65	   O	-45.184	47.473	-99.711	O.2	8	SER379	0.000	
66	  CB	-47.946	48.802	-99.486	C.3	8	SER379	0.000	
67	  OG	-48.199	47.618	-98.751	O.3	8	SER379	0.000	
68	   N	-45.396	47.992	-97.531	N.am	9	TRP380	0.000	
69	  CA	-44.532	46.915	-97.049	C.3	9	TRP380	0.000	
70	   C	-45.180	45.559	-97.095	C.2	9	TRP380	0.000	
71	   O	-44.531	44.548	-96.851	O.2	9	TRP380	0.000	
72	  CB	-44.042	47.227	-95.632	C.3	9	TRP380	0.000	
73	  CG	-43.365	48.575	-95.528	C.2	9	TRP380	0.000	
74	 CD1	-42.514	49.170	-96.453	C.2	9	TRP380	0.000	
75	 CD2	-43.468	49.542	-94.437	C.2	9	TRP380	0.000	
76	 CE2	-42.633	50.679	-94.818	C.2	9	TRP380	0.000	
77	 CE3	-44.144	49.579	-93.229	C.2	9	TRP380	0.000	
78	 NE1	-42.104	50.397	-96.020	N.pl3	9	TRP380	0.000	
79	 CZ2	-42.493	51.789	-94.011	C.2	9	TRP380	0.000	
80	 CZ3	-43.991	50.707	-92.420	C.2	9	TRP380	0.000	
81	 CH2	-43.181	51.783	-92.802	C.2	9	TRP380	0.000	
82	   N	-46.471	45.525	-97.402	N.am	10	PHE381	0.000	
83	  CA	-47.208	44.265	-97.508	C.3	10	PHE381	0.000	
84	   C	-47.902	44.181	-98.858	C.2	10	PHE381	0.000	
85	   O	-49.058	44.584	-98.980	O.2	10	PHE381	0.000	
86	  CB	-48.227	44.133	-96.372	C.3	10	PHE381	0.000	
87	  CG	-47.622	44.248	-95.005	C.2	10	PHE381	0.000	
88	 CD1	-46.963	43.166	-94.428	C.2	10	PHE381	0.000	
89	 CD2	-47.695	45.435	-94.303	C.2	10	PHE381	0.000	
90	 CE1	-46.394	43.270	-93.173	C.2	10	PHE381	0.000	
91	 CE2	-47.128	45.549	-93.047	C.2	10	PHE381	0.000	
92	  CZ	-46.477	44.468	-92.480	C.2	10	PHE381	0.000	
93	   N	-52.269	50.980	-97.198	N.am	11	TRP386	0.000	
94	  CA	-52.085	51.586	-95.865	C.3	11	TRP386	0.000	
95	   C	-52.818	52.896	-95.700	C.2	11	TRP386	0.000	
96	   O	-52.887	53.724	-96.629	O.2	11	TRP386	0.000	
97	  CB	-50.599	51.746	-95.524	C.3	11	TRP386	0.000	
98	  CG	-49.810	52.464	-96.586	C.2	11	TRP386	0.000	
99	 CD1	-49.060	51.895	-97.602	C.2	11	TRP386	0.000	
100	 CD2	-49.677	53.924	-96.781	C.2	11	TRP386	0.000	
101	 CE2	-48.826	54.103	-97.952	C.2	11	TRP386	0.000	
102	 CE3	-50.160	55.059	-96.115	C.2	11	TRP386	0.000	
103	 NE1	-48.492	52.866	-98.391	N.pl3	11	TRP386	0.000	
104	 CZ2	-48.482	55.366	-98.427	C.2	11	TRP386	0.000	
105	 CZ3	-49.815	56.324	-96.609	C.2	11	TRP386	0.000	
106	 CH2	-48.994	56.473	-97.734	C.2	11	TRP386	0.000	
107	   N	-50.452	52.394	-88.833	N.am	12	TRP400	0.000	
108	  CA	-51.275	52.284	-90.051	C.3	12	TRP400	0.000	
109	   C	-52.285	51.172	-89.984	C.2	12	TRP400	0.000	
110	   O	-52.031	50.121	-89.377	O.2	12	TRP400	0.000	
111	  CB	-50.396	52.056	-91.292	C.3	12	TRP400	0.000	
112	  CG	-49.294	53.074	-91.471	C.2	12	TRP400	0.000	
113	 CD1	-49.369	54.301	-92.121	C.2	12	TRP400	0.000	
114	 CD2	-47.919	52.985	-90.978	C.2	12	TRP400	0.000	
115	 CE2	-47.254	54.225	-91.389	C.2	12	TRP400	0.000	
116	 CE3	-47.196	52.036	-90.262	C.2	12	TRP400	0.000	
117	 NE1	-48.166	54.956	-92.067	N.pl3	12	TRP400	0.000	
118	 CZ2	-45.924	54.483	-91.090	C.2	12	TRP400	0.000	
119	 CZ3	-45.856	52.308	-89.963	C.2	12	TRP400	0.000	
120	 CH2	-45.234	53.505	-90.375	C.2	12	TRP400	0.000	
121	   N	-54.030	48.492	-92.507	N.am	13	PHE402	0.000	
122	  CA	-53.827	47.875	-93.808	C.3	13	PHE402	0.000	
123	   C	-55.095	47.166	-94.226	C.2	13	PHE402	0.000	
124	   O	-55.709	46.451	-93.431	O.2	13	PHE402	0.000	
125	  CB	-52.658	46.890	-93.779	C.3	13	PHE402	0.000	
126	  CG	-51.304	47.545	-93.706	C.2	13	PHE402	0.000	
127	 CD1	-50.720	47.841	-92.476	C.2	13	PHE402	0.000	
128	 CD2	-50.598	47.851	-94.872	C.2	13	PHE402	0.000	
129	 CE1	-49.467	48.435	-92.406	C.2	13	PHE402	0.000	
130	 CE2	-49.339	48.443	-94.806	C.2	13	PHE402	0.000	
131	  CZ	-48.775	48.737	-93.571	C.2	13	PHE402	0.000	
@<TRIPOS>BOND
1 1 2 1
2 2 3 1
3 2 5 1
4 3 4 2
5 3 8 1
6 5 6 1
7 5 7 1
8 8 9 1
9 9 10 1
10 9 12 1
11 10 11 2
12 10 16 1
13 12 13 1
14 13 14 1
15 13 15 2
16 16 17 1
17 16 22 1
18 17 18 1
19 17 20 1
20 18 19 2
21 18 23 1
22 20 21 1
23 21 22 1
24 23 24 1
25 24 25 1
26 24 27 1
27 25 26 2
28 27 28 1
29 28 29 2
30 28 30 1
31 29 32 1
32 30 31 2
33 31 32 1
34 33 34 1
35 34 35 1
36 34 37 1
37 35 36 2
38 37 38 1
39 38 39 2
40 38 40 1
41 39 42 1
42 40 41 2
43 41 42 1
44 43 44 1
45 44 45 1
46 44 47 1
47 45 46 2
48 45 52 1
49 47 48 1
50 48 49 1
51 49 50 2
52 49 51 1
53 52 53 1
54 53 54 1
55 53 56 1
56 54 55 2
57 54 62 1
58 56 57 1
59 57 58 2
60 57 59 1
61 58 61 1
62 59 60 2
63 60 61 1
64 62 63 1
65 63 64 1
66 63 66 1
67 64 65 2
68 64 68 1
69 66 67 1
70 68 69 1
71 69 70 1
72 69 72 1
73 70 71 2
74 70 82 1
75 72 73 1
76 73 74 2
77 73 75 1
78 74 78 1
79 75 76 2
80 75 77 1
81 76 79 1
82 77 80 2
83 76 78 1
84 79 81 2
85 80 81 1
86 82 83 1
87 83 84 1
88 83 86 1
89 84 85 2
90 86 87 1
91 87 88 2
92 87 89 1
93 88 90 1
94 89 91 2
95 90 92 2
96 91 92 1
97 93 94 1
98 94 95 1
99 94 97 1
100 95 96 2
101 97 98 1
102 98 99 2
103 98 100 1
104 99 103 1
105 100 101 2
106 100 102 1
107 101 104 1
108 102 105 2
109 101 103 1
110 104 106 2
111 105 106 1
112 107 108 1
113 108 109 1
114 108 111 1
115 109 110 2
116 111 112 1
117 112 113 2
118 112 114 1
119 113 117 1
120 114 115 2
121 114 116 1
122 115 118 1
123 116 119 2
124 115 117 1
125 118 120 2
126 119 120 1
127 121 122 1
128 122 123 1
129 122 125 1
130 123 124 2
131 125 126 1
132 126 127 2
133 126 128 1
134 127 129 1
135 128 130 2
136 129 131 2
137 130 131 1
@<TRIPOS>SUBSTRUCTURE
1	VAL350	1	RESIDUE	1 A	VAL
2	ASN351	8	RESIDUE	1 A	ASN
3	PRO352	16	RESIDUE	1 A	PRO
4	HIS353	23	RESIDUE	1 A	HIS
5	HIS357	33	RESIDUE	1 A	HIS
6	GLU377	43	RESIDUE	1 A	GLU
7	HIS378	52	RESIDUE	1 A	HIS
8	SER379	62	RESIDUE	1 A	SER
9	TRP380	68	RESIDUE	1 A	TRP
10	PHE381	82	RESIDUE	1 A	PHE
11	TRP386	93	RESIDUE	1 A	TRP
12	TRP400	107	RESIDUE	1 A	TRP
13	PHE402	121	RESIDUE	1 A	PHE
