# created with PyMOL 2.5.2
@<TRIPOS>MOLECULE
CDK6_7BQU_E3ligase
131 137 13              
SMALL
USER_CHARGES
@<TRIPOS>ATOM
1	   N	20.136	24.418	15.212	N.am	1	VAL350	0.000	
2	  CA	19.651	23.819	13.973	C.3	1	VAL350	0.000	
3	   C	20.787	23.020	13.354	C.2	1	VAL350	0.000	
4	   O	21.894	23.545	13.174	O.2	1	VAL350	0.000	
5	  CB	19.140	24.881	12.984	C.3	1	VAL350	0.000	
6	 CG1	18.426	24.211	11.810	C.3	1	VAL350	0.000	
7	 CG2	18.223	25.874	13.688	C.3	1	VAL350	0.000	
8	   N	20.515	21.764	13.028	N.am	2	ASN351	0.000	
9	  CA	21.496	20.892	12.397	C.3	2	ASN351	0.000	
10	   C	21.438	21.074	10.884	C.2	2	ASN351	0.000	
11	   O	20.521	21.711	10.357	O.2	2	ASN351	0.000	
12	  CB	21.270	19.446	12.878	C.3	2	ASN351	0.000	
13	  CG	20.358	18.605	11.970	C.2	2	ASN351	0.000	
14	 ND2	20.372	17.300	12.211	N.pl3	2	ASN351	0.000	
15	 OD1	19.640	19.102	11.105	O.2	2	ASN351	0.000	
16	   N	22.427	20.556	10.133	N.am	3	PRO352	0.000	
17	  CA	22.499	20.904	8.704	C.3	3	PRO352	0.000	
18	   C	21.390	20.317	7.843	C.2	3	PRO352	0.000	
19	   O	21.422	20.479	6.620	O.2	3	PRO352	0.000	
20	  CB	23.869	20.360	8.280	C.3	3	PRO352	0.000	
21	  CG	24.150	19.273	9.234	C.3	3	PRO352	0.000	
22	  CD	23.572	19.719	10.542	C.3	3	PRO352	0.000	
23	   N	20.410	19.639	8.442	N.am	4	HIS353	0.000	
24	  CA	19.236	19.175	7.710	C.3	4	HIS353	0.000	
25	   C	17.952	19.790	8.257	C.2	4	HIS353	0.000	
26	   O	16.857	19.287	7.984	O.2	4	HIS353	0.000	
27	  CB	19.161	17.646	7.723	C.3	4	HIS353	0.000	
28	  CG	20.295	16.994	6.996	C.2	4	HIS353	0.000	
29	 CD2	21.499	16.556	7.433	C.2	4	HIS353	0.000	
30	 ND1	20.275	16.766	5.637	N.pl3	4	HIS353	0.000	
31	 CE1	21.409	16.197	5.271	C.2	4	HIS353	0.000	
32	 NE2	22.171	16.062	6.341	N.pl3	4	HIS353	0.000	
33	   N	17.480	20.901	17.788	N.am	5	HIE357	0.000	
34	  CA	17.814	20.181	19.011	C.3	5	HIE357	0.000	
35	   C	18.033	21.193	20.118	C.2	5	HIE357	0.000	
36	   O	18.939	22.027	20.025	O.2	5	HIE357	0.000	
37	  CB	19.071	19.324	18.834	C.3	5	HIE357	0.000	
38	  CG	18.919	18.227	17.828	C.2	5	HIE357	0.000	
39	 CD2	19.380	18.108	16.561	C.2	5	HIE357	0.000	
40	 ND1	18.205	17.078	18.086	N.2	5	HIE357	0.000	
41	 CE1	18.241	16.292	17.024	C.2	5	HIE357	0.000	
42	 NE2	18.948	16.894	16.085	N.pl3	5	HIE357	0.000	
43	   N	32.643	19.570	11.634	N.am	6	GLU377	0.000	
44	  CA	31.630	19.987	10.677	C.3	6	GLU377	0.000	
45	   C	30.355	20.410	11.395	C.2	6	GLU377	0.000	
46	   O	29.812	19.657	12.209	O.2	6	GLU377	0.000	
47	  CB	31.351	18.838	9.706	C.3	6	GLU377	0.000	
48	  CG	30.340	19.161	8.637	C.3	6	GLU377	0.000	
49	  CD	30.772	18.696	7.268	C.2	6	GLU377	0.000	
50	 OE1	31.709	19.303	6.721	O.co2	6	GLU377	0.000	
51	 OE2	30.182	17.728	6.742	O.co2	6	GLU377	0.000	
52	   N	29.910	21.638	11.116	N.am	7	HIS378	0.000	
53	  CA	28.667	22.214	11.634	C.3	7	HIS378	0.000	
54	   C	28.627	22.316	13.152	C.2	7	HIS378	0.000	
55	   O	27.540	22.409	13.731	O.2	7	HIS378	0.000	
56	  CB	27.441	21.425	11.171	C.3	7	HIS378	0.000	
57	  CG	27.411	21.165	9.703	C.2	7	HIS378	0.000	
58	 CD2	27.458	22.009	8.647	C.2	7	HIS378	0.000	
59	 ND1	27.326	19.895	9.179	N.pl3	7	HIS378	0.000	
60	 CE1	27.317	19.967	7.860	C.2	7	HIS378	0.000	
61	 NE2	27.400	21.238	7.511	N.pl3	7	HIS378	0.000	
62	   N	29.772	22.306	13.825	N.am	8	SER379	0.000	
63	  CA	29.749	22.331	15.282	C.3	8	SER379	0.000	
64	   C	29.060	23.592	15.793	C.2	8	SER379	0.000	
65	   O	29.378	24.709	15.374	O.2	8	SER379	0.000	
66	  CB	31.165	22.239	15.846	C.3	8	SER379	0.000	
67	  OG	31.130	22.338	17.265	O.3	8	SER379	0.000	
68	   N	28.096	23.408	16.695	N.am	9	TRP380	0.000	
69	  CA	27.409	24.537	17.306	C.3	9	TRP380	0.000	
70	   C	28.274	25.278	18.308	C.2	9	TRP380	0.000	
71	   O	27.915	26.388	18.711	O.2	9	TRP380	0.000	
72	  CB	26.137	24.069	18.009	C.3	9	TRP380	0.000	
73	  CG	25.157	23.420	17.106	C.2	9	TRP380	0.000	
74	 CD1	24.796	23.825	15.849	C.2	9	TRP380	0.000	
75	 CD2	24.393	22.245	17.387	C.2	9	TRP380	0.000	
76	 CE2	23.591	21.986	16.257	C.2	9	TRP380	0.000	
77	 CE3	24.311	21.383	18.485	C.2	9	TRP380	0.000	
78	 NE1	23.856	22.962	15.331	N.pl3	9	TRP380	0.000	
79	 CZ2	22.718	20.901	16.196	C.2	9	TRP380	0.000	
80	 CZ3	23.446	20.310	18.422	C.2	9	TRP380	0.000	
81	 CH2	22.661	20.078	17.287	C.2	9	TRP380	0.000	
82	   N	29.385	24.693	18.739	N.am	10	PHE381	0.000	
83	  CA	30.271	25.330	19.712	C.3	10	PHE381	0.000	
84	   C	31.656	25.434	19.098	C.2	10	PHE381	0.000	
85	   O	32.418	24.449	19.103	O.2	10	PHE381	0.000	
86	  CB	30.297	24.543	21.019	C.3	10	PHE381	0.000	
87	  CG	28.930	24.243	21.560	C.2	10	PHE381	0.000	
88	 CD1	28.190	25.227	22.202	C.2	10	PHE381	0.000	
89	 CD2	28.368	22.987	21.395	C.2	10	PHE381	0.000	
90	 CE1	26.928	24.955	22.700	C.2	10	PHE381	0.000	
91	 CE2	27.103	22.709	21.881	C.2	10	PHE381	0.000	
92	  CZ	26.382	23.692	22.537	C.2	10	PHE381	0.000	
93	   N	32.283	17.181	17.655	N.am	11	TRP386	0.000	
94	  CA	31.197	16.390	18.220	C.3	11	TRP386	0.000	
95	   C	31.329	14.914	17.869	C.2	11	TRP386	0.000	
96	   O	31.846	14.546	16.810	O.2	11	TRP386	0.000	
97	  CB	29.825	16.905	17.757	C.3	11	TRP386	0.000	
98	  CG	29.651	16.993	16.267	C.2	11	TRP386	0.000	
99	 CD1	29.886	18.084	15.481	C.2	11	TRP386	0.000	
100	 CD2	29.176	15.961	15.387	C.2	11	TRP386	0.000	
101	 CE2	29.159	16.498	14.084	C.2	11	TRP386	0.000	
102	 CE3	28.762	14.639	15.575	C.2	11	TRP386	0.000	
103	 NE1	29.600	17.792	14.167	N.pl3	11	TRP386	0.000	
104	 CZ2	28.754	15.758	12.974	C.2	11	TRP386	0.000	
105	 CZ3	28.358	13.904	14.471	C.2	11	TRP386	0.000	
106	 CH2	28.356	14.468	13.188	C.2	11	TRP386	0.000	
107	   N	25.497	14.465	22.060	N.am	12	TRP400	0.000	
108	  CA	26.844	14.400	21.517	C.3	12	TRP400	0.000	
109	   C	27.845	14.733	22.610	C.2	12	TRP400	0.000	
110	   O	27.586	15.569	23.481	O.2	12	TRP400	0.000	
111	  CB	27.040	15.373	20.336	C.3	12	TRP400	0.000	
112	  CG	26.008	15.251	19.257	C.2	12	TRP400	0.000	
113	 CD1	26.117	14.546	18.093	C.2	12	TRP400	0.000	
114	 CD2	24.709	15.853	19.242	C.2	12	TRP400	0.000	
115	 CE2	24.085	15.467	18.043	C.2	12	TRP400	0.000	
116	 CE3	24.011	16.681	20.132	C.2	12	TRP400	0.000	
117	 NE1	24.966	14.672	17.356	N.pl3	12	TRP400	0.000	
118	 CZ2	22.799	15.884	17.703	C.2	12	TRP400	0.000	
119	 CZ3	22.733	17.089	19.794	C.2	12	TRP400	0.000	
120	 CH2	22.140	16.687	18.590	C.2	12	TRP400	0.000	
121	   N	31.299	16.639	23.178	N.am	13	PHE402	0.000	
122	  CA	32.057	17.708	22.548	C.3	13	PHE402	0.000	
123	   C	33.456	17.732	23.138	C.2	13	PHE402	0.000	
124	   O	33.619	17.778	24.361	O.2	13	PHE402	0.000	
125	  CB	31.364	19.057	22.737	C.3	13	PHE402	0.000	
126	  CG	30.129	19.209	21.903	C.2	13	PHE402	0.000	
127	 CD1	30.212	19.663	20.599	C.2	13	PHE402	0.000	
128	 CD2	28.890	18.857	22.410	C.2	13	PHE402	0.000	
129	 CE1	29.077	19.788	19.821	C.2	13	PHE402	0.000	
130	 CE2	27.749	18.977	21.636	C.2	13	PHE402	0.000	
131	  CZ	27.842	19.450	20.343	C.2	13	PHE402	0.000	
@<TRIPOS>BOND
1 1 2 1
2 2 3 1
3 2 5 1
4 3 4 2
5 3 8 1
6 5 6 1
7 5 7 1
8 8 9 1
9 9 10 1
10 9 12 1
11 10 11 2
12 10 16 1
13 12 13 1
14 13 14 1
15 13 15 2
16 16 17 1
17 16 22 1
18 17 18 1
19 17 20 1
20 18 19 2
21 18 23 1
22 20 21 1
23 21 22 1
24 23 24 1
25 24 25 1
26 24 27 1
27 25 26 2
28 27 28 1
29 28 29 2
30 28 30 1
31 29 32 1
32 30 31 2
33 31 32 1
34 33 34 1
35 34 35 1
36 34 37 1
37 35 36 2
38 37 38 1
39 38 39 2
40 38 40 1
41 39 42 1
42 40 41 2
43 41 42 1
44 43 44 1
45 44 45 1
46 44 47 1
47 45 46 2
48 45 52 1
49 47 48 1
50 48 49 1
51 49 50 2
52 49 51 1
53 52 53 1
54 53 54 1
55 53 56 1
56 54 55 2
57 54 62 1
58 56 57 1
59 57 58 2
60 57 59 1
61 58 61 1
62 59 60 2
63 60 61 1
64 62 63 1
65 63 64 1
66 63 66 1
67 64 65 2
68 64 68 1
69 66 67 1
70 68 69 1
71 69 70 1
72 69 72 1
73 70 71 2
74 70 82 1
75 72 73 1
76 73 74 2
77 73 75 1
78 74 78 1
79 75 76 2
80 75 77 1
81 76 79 1
82 77 80 2
83 76 78 1
84 79 81 2
85 80 81 1
86 82 83 1
87 83 84 1
88 83 86 1
89 84 85 2
90 86 87 1
91 87 88 2
92 87 89 1
93 88 90 1
94 89 91 2
95 90 92 2
96 91 92 1
97 93 94 1
98 94 95 1
99 94 97 1
100 95 96 2
101 97 98 1
102 98 99 2
103 98 100 1
104 99 103 1
105 100 101 2
106 100 102 1
107 101 104 1
108 102 105 2
109 101 103 1
110 104 106 2
111 105 106 1
112 107 108 1
113 108 109 1
114 108 111 1
115 109 110 2
116 111 112 1
117 112 113 2
118 112 114 1
119 113 117 1
120 114 115 2
121 114 116 1
122 115 118 1
123 116 119 2
124 115 117 1
125 118 120 2
126 119 120 1
127 121 122 1
128 122 123 1
129 122 125 1
130 123 124 2
131 125 126 1
132 126 127 2
133 126 128 1
134 127 129 1
135 128 130 2
136 129 131 2
137 130 131 1
@<TRIPOS>SUBSTRUCTURE
1	VAL350	1	RESIDUE	1 A	VAL
2	ASN351	8	RESIDUE	1 A	ASN
3	PRO352	16	RESIDUE	1 A	PRO
4	HIS353	23	RESIDUE	1 A	HIS
5	HIE357	33	RESIDUE	1 A	HIE
6	GLU377	43	RESIDUE	1 A	GLU
7	HIS378	52	RESIDUE	1 A	HIS
8	SER379	62	RESIDUE	1 A	SER
9	TRP380	68	RESIDUE	1 A	TRP
10	PHE381	82	RESIDUE	1 A	PHE
11	TRP386	93	RESIDUE	1 A	TRP
12	TRP400	107	RESIDUE	1 A	TRP
13	PHE402	121	RESIDUE	1 A	PHE
