# created with PyMOL 2.5.2
@<TRIPOS>MOLECULE
CDK6_4HG7_E3ligase
122 118 14              
SMALL
USER_CHARGES
@<TRIPOS>ATOM
1	   N	-19.561	16.862	-12.612	N.am	1	LEU54	0.000	
2	  CA	-20.178	15.536	-12.774	C.3	1	LEU54	0.000	
3	   C	-19.363	14.610	-13.652	C.2	1	LEU54	0.000	
4	   O	-19.278	13.405	-13.373	O.2	1	LEU54	0.000	
5	  CB	-21.606	15.693	-13.328	C.3	1	LEU54	0.000	
6	  CG	-22.710	15.828	-12.277	C.3	1	LEU54	0.000	
7	 CD1	-22.787	14.614	-11.326	C.3	1	LEU54	0.000	
8	 CD2	-22.487	17.114	-11.509	C.3	1	LEU54	0.000	
9	   N	-16.448	13.446	-11.411	N.am	2	LEU57	0.000	
10	  CA	-16.943	12.529	-10.365	C.3	2	LEU57	0.000	
11	   C	-17.272	11.197	-11.002	C.2	2	LEU57	0.000	
12	   O	-16.991	10.183	-10.428	O.2	2	LEU57	0.000	
13	  CB	-18.195	13.045	-9.658	C.3	2	LEU57	0.000	
14	  CG	-18.016	14.137	-8.621	C.3	2	LEU57	0.000	
15	 CD1	-19.365	14.744	-8.217	C.3	2	LEU57	0.000	
16	 CD2	-17.309	13.555	-7.407	C.3	2	LEU57	0.000	
17	   N	-17.881	11.195	-12.188	N.am	3	GLY58	0.000	
18	  CA	-18.175	9.933	-12.879	C.3	3	GLY58	0.000	
19	   C	-16.906	9.176	-13.180	C.2	3	GLY58	0.000	
20	   O	-16.863	7.962	-12.974	O.2	3	GLY58	0.000	
21	   N	-15.856	9.885	-13.623	N.am	4	GLN59	0.000	
22	  CA	-14.567	9.246	-13.901	C.3	4	GLN59	0.000	
23	   C	-13.975	8.634	-12.629	C.2	4	GLN59	0.000	
24	   O	-13.421	7.525	-12.653	O.2	4	GLN59	0.000	
25	  CB	-13.613	10.255	-14.540	C.3	4	GLN59	0.000	
26	  CG	-13.878	10.422	-16.025	C.3	4	GLN59	0.000	
27	  CD	-13.336	9.251	-16.816	C.2	4	GLN59	0.000	
28	 NE2	-12.056	9.305	-17.160	N.pl3	4	GLN59	0.000	
29	 OE1	-14.066	8.312	-17.123	O.2	4	GLN59	0.000	
30	   N	-15.674	7.569	-9.915	N.am	5	ILE61	0.000	
31	  CA	-16.456	6.356	-9.618	C.3	5	ILE61	0.000	
32	   C	-16.059	5.165	-10.485	C.2	5	ILE61	0.000	
33	   O	-15.937	4.027	-10.009	O.2	5	ILE61	0.000	
34	  CB	-17.969	6.691	-9.788	C.3	5	ILE61	0.000	
35	 CG1	-18.430	7.590	-8.639	C.3	5	ILE61	0.000	
36	 CG2	-18.851	5.432	-9.960	C.3	5	ILE61	0.000	
37	 CD1	-19.742	8.318	-8.929	C.3	5	ILE61	0.000	
38	   N	-15.818	5.407	-11.764	N.am	6	MET62	0.000	
39	  CA	-15.409	4.306	-12.649	C.3	6	MET62	0.000	
40	   C	-14.000	3.792	-12.353	C.2	6	MET62	0.000	
41	   O	-13.768	2.577	-12.364	O.2	6	MET62	0.000	
42	  CB	-15.533	4.726	-14.136	C.3	6	MET62	0.000	
43	  CG	-16.932	5.133	-14.589	C.3	6	MET62	0.000	
44	  SD	-18.184	3.903	-14.223	S.3	6	MET62	0.000	
45	  CE	-17.679	2.577	-15.326	C.3	6	MET62	0.000	
46	   N	-18.996	1.400	-8.641	N.am	7	TYR67	0.000	
47	  CA	-20.209	0.799	-9.227	C.3	7	TYR67	0.000	
48	   C	-20.465	-0.660	-8.739	C.2	7	TYR67	0.000	
49	   O	-19.565	-1.302	-8.178	O.2	7	TYR67	0.000	
50	  CB	-20.136	0.891	-10.757	C.3	7	TYR67	0.000	
51	  CG	-18.927	0.229	-11.390	C.2	7	TYR67	0.000	
52	 CD1	-18.889	-1.158	-11.571	C.2	7	TYR67	0.000	
53	 CD2	-17.853	0.977	-11.841	C.2	7	TYR67	0.000	
54	 CE1	-17.804	-1.777	-12.158	C.2	7	TYR67	0.000	
55	 CE2	-16.749	0.355	-12.443	C.2	7	TYR67	0.000	
56	  CZ	-16.744	-1.021	-12.604	C.2	7	TYR67	0.000	
57	  OH	-15.684	-1.695	-13.181	O.3	7	TYR67	0.000	
58	   N	-26.679	-1.712	-11.064	N.am	8	GLN72	0.000	
59	  CA	-25.805	-0.675	-11.530	C.3	8	GLN72	0.000	
60	   C	-26.204	0.718	-11.130	C.2	8	GLN72	0.000	
61	   O	-25.353	1.620	-11.166	O.2	8	GLN72	0.000	
62	  CB	-25.806	-0.725	-13.052	C.3	8	GLN72	0.000	
63	  CG	-24.930	-1.823	-13.491	C.3	8	GLN72	0.000	
64	  CD	-24.862	-1.876	-14.986	C.2	8	GLN72	0.000	
65	 NE2	-24.962	-3.062	-15.480	N.pl3	8	GLN72	0.000	
66	 OE1	-24.706	-0.850	-15.682	O.2	8	GLN72	0.000	
67	   N	-27.467	0.898	-10.733	N.am	9	HIE73	0.000	
68	  CA	-27.967	2.238	-10.419	C.3	9	HIE73	0.000	
69	   C	-27.558	2.762	-9.071	C.2	9	HIE73	0.000	
70	   O	-27.869	3.912	-8.748	O.2	9	HIE73	0.000	
71	  CB	-29.494	2.352	-10.637	C.3	9	HIE73	0.000	
72	  CG	-30.325	1.984	-9.435	C.2	9	HIE73	0.000	
73	 CD2	-30.843	2.773	-8.405	C.2	9	HIE73	0.000	
74	 ND1	-30.735	0.701	-9.187	N.2	9	HIE73	0.000	
75	 CE1	-31.467	0.686	-8.050	C.2	9	HIE73	0.000	
76	 NE2	-31.521	1.954	-7.567	N.pl3	9	HIE73	0.000	
77	   N	-27.988	6.728	-8.624	N.am	10	VAL93	0.000	
78	  CA	-27.641	7.599	-9.764	C.3	10	VAL93	0.000	
79	   C	-28.853	8.228	-10.450	C.2	10	VAL93	0.000	
80	   O	-28.687	9.187	-11.224	O.2	10	VAL93	0.000	
81	  CB	-26.827	6.821	-10.839	C.3	10	VAL93	0.000	
82	 CG1	-25.540	6.232	-10.223	C.3	10	VAL93	0.000	
83	 CG2	-27.711	5.761	-11.552	C.3	10	VAL93	0.000	
84	   N	-30.056	7.701	-10.171	N.am	11	LYS94	0.000	
85	  CA	-31.319	8.179	-10.783	C.3	11	LYS94	0.000	
86	   C	-31.775	9.537	-10.262	C.2	11	LYS94	0.000	
87	   O	-32.550	10.236	-10.931	O.2	11	LYS94	0.000	
88	  CB	-32.454	7.152	-10.604	C.3	11	LYS94	0.000	
89	  CG	-32.159	5.748	-11.130	C.3	11	LYS94	0.000	
90	  CD	-33.346	4.808	-10.913	C.3	11	LYS94	0.000	
91	  CE	-33.164	3.456	-11.602	C.3	11	LYS94	0.000	
92	  NZ	-33.112	3.547	-13.097	N.4	11	LYS94	0.000	
93	   N	-31.012	12.866	-9.800	N.am	12	HIE96	0.000	
94	  CA	-30.008	13.901	-10.209	C.3	12	HIE96	0.000	
95	   C	-30.061	15.120	-9.321	C.2	12	HIE96	0.000	
96	   O	-29.016	15.677	-8.971	O.2	12	HIE96	0.000	
97	  CB	-30.121	14.310	-11.671	C.3	12	HIE96	0.000	
98	  CG	-29.731	13.202	-12.638	C.2	12	HIE96	0.000	
99	 CD2	-29.536	11.830	-12.438	C.2	12	HIE96	0.000	
100	 ND1	-29.542	13.419	-13.958	N.2	12	HIE96	0.000	
101	 CE1	-29.193	12.267	-14.561	C.2	12	HIE96	0.000	
102	 NE2	-29.221	11.290	-13.652	N.pl3	12	HIE96	0.000	
103	   N	-28.233	14.383	-6.102	N.am	13	ILE99	0.000	
104	  CA	-26.770	14.405	-6.357	C.3	13	ILE99	0.000	
105	   C	-26.265	15.863	-6.464	C.2	13	ILE99	0.000	
106	   O	-25.270	16.225	-5.824	O.2	13	ILE99	0.000	
107	  CB	-26.407	13.559	-7.583	C.3	13	ILE99	0.000	
108	 CG1	-26.681	12.091	-7.246	C.3	13	ILE99	0.000	
109	 CG2	-24.939	13.735	-7.949	C.3	13	ILE99	0.000	
110	 CD1	-26.735	11.187	-8.470	C.3	13	ILE99	0.000	
111	   N	-26.975	16.704	-7.226	N.am	14	TYR100	0.000	
112	  CA	-26.627	18.128	-7.274	C.3	14	TYR100	0.000	
113	   C	-26.568	18.741	-5.867	C.2	14	TYR100	0.000	
114	   O	-25.600	19.438	-5.540	O.2	14	TYR100	0.000	
115	  CB	-27.555	18.926	-8.205	C.3	14	TYR100	0.000	
116	  CG	-26.993	19.039	-9.635	C.2	14	TYR100	0.000	
117	 CD1	-26.669	17.902	-10.412	C.2	14	TYR100	0.000	
118	 CD2	-26.705	20.282	-10.166	C.2	14	TYR100	0.000	
119	 CE1	-26.107	18.047	-11.666	C.2	14	TYR100	0.000	
120	 CE2	-26.170	20.435	-11.441	C.2	14	TYR100	0.000	
121	  CZ	-25.853	19.324	-12.180	C.2	14	TYR100	0.000	
122	  OH	-25.255	19.475	-13.424	O.3	14	TYR100	0.000	
@<TRIPOS>BOND
1 1 2 1
2 2 3 1
3 2 5 1
4 3 4 2
5 5 6 1
6 6 7 1
7 6 8 1
8 9 10 1
9 10 11 1
10 10 13 1
11 11 12 2
12 11 17 1
13 13 14 1
14 14 15 1
15 14 16 1
16 17 18 1
17 18 19 1
18 19 20 2
19 19 21 1
20 21 22 1
21 22 23 1
22 22 25 1
23 23 24 2
24 25 26 1
25 26 27 1
26 27 28 1
27 27 29 2
28 30 31 1
29 31 32 1
30 31 34 1
31 32 33 2
32 32 38 1
33 34 35 1
34 34 36 1
35 35 37 1
36 38 39 1
37 39 40 1
38 39 42 1
39 40 41 2
40 42 43 1
41 43 44 1
42 44 45 1
43 46 47 1
44 47 48 1
45 47 50 1
46 48 49 2
47 50 51 1
48 51 52 2
49 51 53 1
50 52 54 1
51 53 55 2
52 54 56 2
53 55 56 1
54 56 57 1
55 58 59 1
56 59 60 1
57 59 62 1
58 60 61 2
59 60 67 1
60 62 63 1
61 63 64 1
62 64 65 1
63 64 66 2
64 67 68 1
65 68 69 1
66 68 71 1
67 69 70 2
68 71 72 1
69 72 73 2
70 72 74 1
71 73 76 1
72 74 75 2
73 75 76 1
74 77 78 1
75 78 79 1
76 78 81 1
77 79 80 2
78 79 84 1
79 81 82 1
80 81 83 1
81 84 85 1
82 85 86 1
83 85 88 1
84 86 87 2
85 88 89 1
86 89 90 1
87 90 91 1
88 91 92 1
89 93 94 1
90 94 95 1
91 94 97 1
92 95 96 2
93 97 98 1
94 98 99 2
95 98 100 1
96 99 102 1
97 100 101 2
98 101 102 1
99 103 104 1
100 104 105 1
101 104 107 1
102 105 106 2
103 105 111 1
104 107 108 1
105 107 109 1
106 108 110 1
107 111 112 1
108 112 113 1
109 112 115 1
110 113 114 2
111 115 116 1
112 116 117 2
113 116 118 1
114 117 119 1
115 118 120 2
116 119 121 2
117 120 121 1
118 121 122 1
@<TRIPOS>SUBSTRUCTURE
1	LEU54	1	RESIDUE	1 A	LEU
2	LEU57	9	RESIDUE	1 A	LEU
3	GLY58	17	RESIDUE	1 A	GLY
4	GLN59	21	RESIDUE	1 A	GLN
5	ILE61	30	RESIDUE	1 A	ILE
6	MET62	38	RESIDUE	1 A	MET
7	TYR67	46	RESIDUE	1 A	TYR
8	GLN72	58	RESIDUE	1 A	GLN
9	HIE73	67	RESIDUE	1 A	HIE
10	VAL93	77	RESIDUE	1 A	VAL
11	LYS94	84	RESIDUE	1 A	LYS
12	HIE96	93	RESIDUE	1 A	HIE
13	ILE99	103	RESIDUE	1 A	ILE
14	TYR100	111	RESIDUE	1 A	TYR
