# created with PyMOL 2.5.2
@<TRIPOS>MOLECULE
BRD9_5LLI_E3ligase
167 168 17              
SMALL
USER_CHARGES
@<TRIPOS>ATOM
1	   N	16.320	61.554	99.541	N.am	1	ASN67	0.000	
2	  CA	14.955	61.003	99.569	C.3	1	ASN67	0.000	
3	   C	13.893	62.123	99.590	C.2	1	ASN67	0.000	
4	   O	13.257	62.393	100.619	O.2	1	ASN67	0.000	
5	  CB	14.771	60.019	100.735	C.3	1	ASN67	0.000	
6	  CG	13.500	59.190	100.607	C.2	1	ASN67	0.000	
7	 ND2	13.245	58.367	101.596	N.pl3	1	ASN67	0.000	
8	 OD1	12.752	59.303	99.642	O.2	1	ASN67	0.000	
9	   N	11.109	62.586	97.479	N.am	2	ARG69	0.000	
10	  CA	9.741	62.161	97.215	C.3	2	ARG69	0.000	
11	   C	8.969	63.008	96.202	C.2	2	ARG69	0.000	
12	   O	7.783	62.775	96.033	O.2	2	ARG69	0.000	
13	  CB	8.936	62.059	98.515	C.3	2	ARG69	0.000	
14	  CG	9.344	60.887	99.384	C.3	2	ARG69	0.000	
15	  CD	8.890	61.057	100.826	C.3	2	ARG69	0.000	
16	  NE	9.588	60.123	101.709	N.pl3	2	ARG69	0.000	
17	  CZ	9.057	59.039	102.281	C.cat	2	ARG69	0.000	
18	 NH1	7.779	58.703	102.104	N.pl3	2	ARG69	0.000	
19	 NH2	9.820	58.279	103.061	N.pl3	2	ARG69	0.000	
20	   N	15.632	59.039	78.958	N.am	3	PHE76	0.000	
21	  CA	17.010	58.568	78.745	C.3	3	PHE76	0.000	
22	   C	17.185	58.362	77.234	C.2	3	PHE76	0.000	
23	   O	16.507	57.518	76.653	O.2	3	PHE76	0.000	
24	  CB	17.279	57.235	79.465	C.3	3	PHE76	0.000	
25	  CG	17.368	57.317	80.971	C.2	3	PHE76	0.000	
26	 CD1	17.429	58.529	81.647	C.2	3	PHE76	0.000	
27	 CD2	17.451	56.148	81.708	C.2	3	PHE76	0.000	
28	 CE1	17.554	58.572	83.022	C.2	3	PHE76	0.000	
29	 CE2	17.587	56.176	83.089	C.2	3	PHE76	0.000	
30	  CZ	17.641	57.394	83.754	C.2	3	PHE76	0.000	
31	   N	22.231	52.224	82.767	N.am	4	PRO86	0.000	
32	  CA	22.004	53.294	83.713	C.3	4	PRO86	0.000	
33	   C	22.228	52.795	85.135	C.2	4	PRO86	0.000	
34	   O	21.858	51.687	85.438	O.2	4	PRO86	0.000	
35	  CB	20.547	53.677	83.489	C.3	4	PRO86	0.000	
36	  CG	20.041	52.847	82.369	C.3	4	PRO86	0.000	
37	  CD	20.955	51.668	82.298	C.3	4	PRO86	0.000	
38	   N	21.733	54.065	89.235	N.am	5	TRP88	0.000	
39	  CA	21.182	54.969	90.246	C.3	5	TRP88	0.000	
40	   C	22.003	54.788	91.522	C.2	5	TRP88	0.000	
41	   O	22.291	53.654	91.901	O.2	5	TRP88	0.000	
42	  CB	19.702	54.617	90.523	C.3	5	TRP88	0.000	
43	  CG	19.058	55.407	91.640	C.2	5	TRP88	0.000	
44	 CD1	18.930	56.767	91.714	C.2	5	TRP88	0.000	
45	 CD2	18.430	54.882	92.826	C.2	5	TRP88	0.000	
46	 CE2	17.951	55.985	93.568	C.2	5	TRP88	0.000	
47	 CE3	18.226	53.584	93.336	C.2	5	TRP88	0.000	
48	 NE1	18.261	57.120	92.865	N.pl3	5	TRP88	0.000	
49	 CZ2	17.306	55.833	94.809	C.2	5	TRP88	0.000	
50	 CZ3	17.578	53.438	94.550	C.2	5	TRP88	0.000	
51	 CH2	17.133	54.555	95.278	C.2	5	TRP88	0.000	
52	   N	20.094	55.526	98.509	N.am	6	PHE91	0.000	
53	  CA	20.149	56.433	99.646	C.3	6	PHE91	0.000	
54	   C	21.344	56.188	100.569	C.2	6	PHE91	0.000	
55	   O	21.727	57.080	101.308	O.2	6	PHE91	0.000	
56	  CB	18.823	56.407	100.389	C.3	6	PHE91	0.000	
57	  CG	17.641	56.694	99.499	C.2	6	PHE91	0.000	
58	 CD1	17.622	57.836	98.695	C.2	6	PHE91	0.000	
59	 CD2	16.564	55.822	99.440	C.2	6	PHE91	0.000	
60	 CE1	16.547	58.112	97.862	C.2	6	PHE91	0.000	
61	 CE2	15.485	56.090	98.607	C.2	6	PHE91	0.000	
62	  CZ	15.481	57.240	97.810	C.2	6	PHE91	0.000	
63	   N	20.252	49.412	86.394	N.am	7	TYR98	0.000	
64	  CA	18.894	49.408	85.811	C.3	7	TYR98	0.000	
65	   C	18.922	48.744	84.436	C.2	7	TYR98	0.000	
66	   O	20.011	48.431	83.921	O.2	7	TYR98	0.000	
67	  CB	18.332	50.837	85.735	C.3	7	TYR98	0.000	
68	  CG	17.580	51.221	86.993	C.2	7	TYR98	0.000	
69	 CD1	18.265	51.439	88.186	C.2	7	TYR98	0.000	
70	 CD2	16.191	51.327	87.014	C.2	7	TYR98	0.000	
71	 CE1	17.594	51.774	89.357	C.2	7	TYR98	0.000	
72	 CE2	15.504	51.675	88.190	C.2	7	TYR98	0.000	
73	  CZ	16.214	51.896	89.373	C.2	7	TYR98	0.000	
74	  OH	15.577	52.244	90.570	O.3	7	TYR98	0.000	
75	   N	17.740	48.482	83.841	N.am	8	PRO99	0.000	
76	  CA	17.728	47.825	82.524	C.3	8	PRO99	0.000	
77	   C	18.508	48.623	81.458	C.2	8	PRO99	0.000	
78	   O	18.618	49.856	81.547	O.2	8	PRO99	0.000	
79	  CB	16.230	47.729	82.195	C.3	8	PRO99	0.000	
80	  CG	15.559	47.663	83.529	C.3	8	PRO99	0.000	
81	  CD	16.381	48.581	84.411	C.3	8	PRO99	0.000	
82	   N	19.093	47.903	80.509	N.am	9	THR100	0.000	
83	  CA	19.987	48.494	79.499	C.3	9	THR100	0.000	
84	   C	19.207	49.095	78.329	C.2	9	THR100	0.000	
85	   O	18.032	48.773	78.142	O.2	9	THR100	0.000	
86	  CB	20.943	47.446	78.901	C.3	9	THR100	0.000	
87	 CG2	22.000	47.029	79.901	C.3	9	THR100	0.000	
88	 OG1	20.185	46.295	78.511	O.3	9	THR100	0.000	
89	   N	19.879	49.969	77.574	N.am	10	LEU101	0.000	
90	  CA	19.327	50.607	76.362	C.3	10	LEU101	0.000	
91	   C	20.182	50.299	75.138	C.2	10	LEU101	0.000	
92	   O	21.369	50.638	75.112	O.2	10	LEU101	0.000	
93	  CB	19.292	52.126	76.504	C.3	10	LEU101	0.000	
94	  CG	18.333	52.769	77.499	C.3	10	LEU101	0.000	
95	 CD1	19.058	53.063	78.794	C.3	10	LEU101	0.000	
96	 CD2	17.774	54.067	76.944	C.3	10	LEU101	0.000	
97	   N	13.961	55.824	76.355	N.am	11	ARG107	0.000	
98	  CA	12.995	55.301	77.338	C.3	11	ARG107	0.000	
99	   C	12.492	56.426	78.234	C.2	11	ARG107	0.000	
100	   O	13.287	57.169	78.796	O.2	11	ARG107	0.000	
101	  CB	13.648	54.252	78.240	C.3	11	ARG107	0.000	
102	  CG	14.241	53.027	77.571	C.3	11	ARG107	0.000	
103	  CD	13.270	51.877	77.551	C.3	11	ARG107	0.000	
104	  NE	13.882	50.662	77.020	N.pl3	11	ARG107	0.000	
105	  CZ	14.109	50.421	75.725	C.cat	11	ARG107	0.000	
106	 NH1	13.787	51.313	74.797	N.pl3	11	ARG107	0.000	
107	 NH2	14.673	49.275	75.352	N.pl3	11	ARG107	0.000	
108	   N	11.197	57.398	81.703	N.am	12	ILE109	0.000	
109	  CA	11.239	56.780	83.025	C.3	12	ILE109	0.000	
110	   C	10.814	57.736	84.106	C.2	12	ILE109	0.000	
111	   O	10.817	58.946	83.925	O.2	12	ILE109	0.000	
112	  CB	12.625	56.161	83.349	C.3	12	ILE109	0.000	
113	 CG1	13.740	57.211	83.393	C.3	12	ILE109	0.000	
114	 CG2	12.983	55.097	82.319	C.3	12	ILE109	0.000	
115	 CD1	14.069	57.730	84.776	C.3	12	ILE109	0.000	
116	   N	10.420	57.161	85.233	N.am	13	HIS110	0.000	
117	  CA	10.014	57.928	86.407	C.3	13	HIS110	0.000	
118	   C	11.164	57.937	87.404	C.2	13	HIS110	0.000	
119	   O	11.619	56.880	87.818	O.2	13	HIS110	0.000	
120	  CB	8.779	57.290	87.046	C.3	13	HIS110	0.000	
121	  CG	7.560	57.346	86.185	C.2	13	HIS110	0.000	
122	 CD2	6.659	56.394	85.850	C.2	13	HIS110	0.000	
123	 ND1	7.147	58.501	85.559	N.pl3	13	HIS110	0.000	
124	 CE1	6.046	58.259	84.873	C.2	13	HIS110	0.000	
125	 NE2	5.730	56.987	85.029	N.pl3	13	HIS110	0.000	
126	   N	11.619	59.124	87.791	N.am	14	SER111	0.000	
127	  CA	12.628	59.264	88.836	C.3	14	SER111	0.000	
128	   C	12.160	60.324	89.837	C.2	14	SER111	0.000	
129	   O	10.961	60.556	89.963	O.2	14	SER111	0.000	
130	  CB	13.985	59.603	88.207	C.3	14	SER111	0.000	
131	  OG	15.043	59.535	89.147	O.3	14	SER111	0.000	
132	   N	13.092	60.943	90.562	N.am	15	TYR112	0.000	
133	  CA	12.753	61.924	91.601	C.3	15	TYR112	0.000	
134	   C	13.771	63.056	91.634	C.2	15	TYR112	0.000	
135	   O	14.949	62.843	91.287	O.2	15	TYR112	0.000	
136	  CB	12.695	61.247	92.983	C.3	15	TYR112	0.000	
137	  CG	11.535	60.292	93.113	C.2	15	TYR112	0.000	
138	 CD1	11.657	58.965	92.740	C.2	15	TYR112	0.000	
139	 CD2	10.303	60.732	93.557	C.2	15	TYR112	0.000	
140	 CE1	10.584	58.094	92.816	C.2	15	TYR112	0.000	
141	 CE2	9.224	59.870	93.644	C.2	15	TYR112	0.000	
142	  CZ	9.368	58.550	93.265	C.3	15	TYR112	0.000	
143	  OH	8.294	57.690	93.350	O.3	15	TYR112	0.000	
144	   N	17.786	62.935	92.904	N.am	16	HIS115	0.000	
145	  CA	18.378	61.615	92.689	C.3	16	HIS115	0.000	
146	   C	19.577	61.653	91.739	C.2	16	HIS115	0.000	
147	   O	19.622	62.466	90.836	O.2	16	HIS115	0.000	
148	  CB	17.306	60.668	92.196	C.3	16	HIS115	0.000	
149	  CG	16.388	60.206	93.277	C.2	16	HIS115	0.000	
150	 CD2	16.085	60.748	94.482	C.2	16	HIS115	0.000	
151	 ND1	15.707	59.013	93.214	N.pl3	16	HIS115	0.000	
152	 CE1	15.004	58.852	94.324	C.2	16	HIS115	0.000	
153	 NE2	15.208	59.897	95.103	N.pl3	16	HIS115	0.000	
154	   N	22.359	59.828	89.014	N.am	17	TRP117	0.000	
155	  CA	22.491	58.814	87.971	C.3	17	TRP117	0.000	
156	   C	23.824	58.948	87.232	C.2	17	TRP117	0.000	
157	   O	24.316	60.057	87.026	O.2	17	TRP117	0.000	
158	  CB	21.407	59.029	86.936	C.3	17	TRP117	0.000	
159	  CG	20.017	58.719	87.369	C.2	17	TRP117	0.000	
160	 CD1	19.116	59.582	87.890	C.2	17	TRP117	0.000	
161	 CD2	19.350	57.454	87.256	C.2	17	TRP117	0.000	
162	 CE2	18.049	57.625	87.744	C.2	17	TRP117	0.000	
163	 CE3	19.727	56.194	86.776	C.2	17	TRP117	0.000	
164	 NE1	17.926	58.932	88.130	N.pl3	17	TRP117	0.000	
165	 CZ2	17.130	56.596	87.772	C.2	17	TRP117	0.000	
166	 CZ3	18.796	55.164	86.813	C.2	17	TRP117	0.000	
167	 CH2	17.518	55.379	87.291	C.2	17	TRP117	0.000	
@<TRIPOS>BOND
1 1 2 1
2 2 3 1
3 2 5 1
4 3 4 2
5 5 6 1
6 6 7 1
7 6 8 2
8 9 10 1
9 10 11 1
10 10 13 1
11 11 12 2
12 13 14 1
13 14 15 1
14 15 16 1
15 16 17 1
16 17 18 2
17 17 19 1
18 20 21 1
19 21 22 1
20 21 24 1
21 22 23 2
22 24 25 1
23 25 26 2
24 25 27 1
25 26 28 1
26 27 29 2
27 28 30 2
28 29 30 1
29 31 32 1
30 31 37 1
31 32 33 1
32 32 35 1
33 33 34 2
34 35 36 1
35 36 37 1
36 38 39 1
37 39 40 1
38 39 42 1
39 40 41 2
40 42 43 1
41 43 44 2
42 43 45 1
43 44 48 1
44 45 46 2
45 45 47 1
46 46 49 1
47 47 50 2
48 46 48 1
49 49 51 2
50 50 51 1
51 52 53 1
52 53 54 1
53 53 56 1
54 54 55 2
55 56 57 1
56 57 58 2
57 57 59 1
58 58 60 1
59 59 61 2
60 60 62 2
61 61 62 1
62 63 64 1
63 64 65 1
64 64 67 1
65 65 66 2
66 65 75 1
67 67 68 1
68 68 69 2
69 68 70 1
70 69 71 1
71 70 72 2
72 71 73 2
73 72 73 1
74 73 74 1
75 75 76 1
76 75 81 1
77 76 77 1
78 76 79 1
79 77 78 2
80 77 82 1
81 79 80 1
82 80 81 1
83 82 83 1
84 83 84 1
85 83 86 1
86 84 85 2
87 84 89 1
88 86 87 1
89 86 88 1
90 89 90 1
91 90 91 1
92 90 93 1
93 91 92 2
94 93 94 1
95 94 95 1
96 94 96 1
97 97 98 1
98 98 99 1
99 98 101 1
100 99 100 2
101 101 102 1
102 102 103 1
103 103 104 1
104 104 105 1
105 105 106 2
106 105 107 1
107 108 109 1
108 109 110 1
109 109 112 1
110 110 111 2
111 110 116 1
112 112 113 1
113 112 114 1
114 113 115 1
115 116 117 1
116 117 118 1
117 117 120 1
118 118 119 2
119 118 126 1
120 120 121 1
121 121 122 2
122 121 123 1
123 122 125 1
124 123 124 2
125 124 125 1
126 126 127 1
127 127 128 1
128 127 130 1
129 128 129 2
130 128 132 1
131 130 131 1
132 132 133 1
133 133 134 1
134 133 136 1
135 134 135 2
136 136 137 1
137 137 138 2
138 137 139 1
139 138 140 1
140 139 141 2
141 140 142 2
142 141 142 1
143 142 143 1
144 144 145 1
145 145 146 1
146 145 148 1
147 146 147 2
148 148 149 1
149 149 150 2
150 149 151 1
151 150 153 1
152 151 152 2
153 152 153 1
154 154 155 1
155 155 156 1
156 155 158 1
157 156 157 2
158 158 159 1
159 159 160 2
160 159 161 1
161 160 164 1
162 161 162 2
163 161 163 1
164 162 165 1
165 163 166 2
166 162 164 1
167 165 167 2
168 166 167 1
@<TRIPOS>SUBSTRUCTURE
1	ASN67	1	RESIDUE	1 A	ASN
2	ARG69	9	RESIDUE	1 A	ARG
3	PHE76	20	RESIDUE	1 A	PHE
4	PRO86	31	RESIDUE	1 A	PRO
5	TRP88	38	RESIDUE	1 A	TRP
6	PHE91	52	RESIDUE	1 A	PHE
7	TYR98	63	RESIDUE	1 A	TYR
8	PRO99	75	RESIDUE	1 A	PRO
9	THR100	82	RESIDUE	1 A	THR
10	LEU101	89	RESIDUE	1 A	LEU
11	ARG107	97	RESIDUE	1 A	ARG
12	ILE109	108	RESIDUE	1 A	ILE
13	HIS110	116	RESIDUE	1 A	HIS
14	SER111	126	RESIDUE	1 A	SER
15	TYR112	132	RESIDUE	1 A	TYR
16	HIS115	144	RESIDUE	1 A	HIS
17	TRP117	154	RESIDUE	1 A	TRP
