# created with PyMOL 2.5.2
@<TRIPOS>MOLECULE
BRD7_5NVX_E3ligase
176 176 18              
SMALL
USER_CHARGES
@<TRIPOS>ATOM
1	   N	16.157	60.771	98.663	N.am	1	ASN67	0.000	
2	  CA	14.808	60.216	98.694	C.3	1	ASN67	0.000	
3	   C	13.750	61.338	98.753	C.2	1	ASN67	0.000	
4	   O	13.192	61.643	99.814	O.2	1	ASN67	0.000	
5	  CB	14.651	59.207	99.836	C.3	1	ASN67	0.000	
6	  CG	13.461	58.280	99.632	C.2	1	ASN67	0.000	
7	 ND2	13.329	57.285	100.500	N.pl3	1	ASN67	0.000	
8	 OD1	12.660	58.468	98.720	O.2	1	ASN67	0.000	
9	   N	10.919	61.669	96.621	N.am	2	ARG69	0.000	
10	  CA	9.572	61.220	96.290	C.3	2	ARG69	0.000	
11	   C	8.816	62.136	95.326	C.2	2	ARG69	0.000	
12	   O	7.617	62.020	95.226	O.2	2	ARG69	0.000	
13	  CB	8.732	61.031	97.557	C.3	2	ARG69	0.000	
14	  CG	9.331	60.088	98.584	C.3	2	ARG69	0.000	
15	  CD	8.749	60.358	99.958	C.3	2	ARG69	0.000	
16	  NE	8.199	59.149	100.553	N.pl3	2	ARG69	0.000	
17	  CZ	8.869	58.311	101.338	C.cat	2	ARG69	0.000	
18	 NH1	10.145	58.530	101.633	N.pl3	2	ARG69	0.000	
19	 NH2	8.249	57.243	101.829	N.pl3	2	ARG69	0.000	
20	   N	15.380	58.255	78.341	N.am	3	PHE76	0.000	
21	  CA	16.746	57.795	78.164	C.3	3	PHE76	0.000	
22	   C	16.889	57.608	76.655	C.2	3	PHE76	0.000	
23	   O	16.196	56.762	76.087	O.2	3	PHE76	0.000	
24	  CB	17.001	56.457	78.863	C.3	3	PHE76	0.000	
25	  CG	17.082	56.517	80.380	C.2	3	PHE76	0.000	
26	 CD1	17.194	57.722	81.081	C.2	3	PHE76	0.000	
27	 CD2	17.131	55.330	81.100	C.2	3	PHE76	0.000	
28	 CE1	17.307	57.733	82.461	C.2	3	PHE76	0.000	
29	 CE2	17.248	55.337	82.482	C.2	3	PHE76	0.000	
30	  CZ	17.337	56.540	83.169	C.2	3	PHE76	0.000	
31	   N	21.937	51.576	82.019	N.am	4	PRO86	0.000	
32	  CA	21.714	52.653	82.948	C.3	4	PRO86	0.000	
33	   C	21.972	52.165	84.369	C.2	4	PRO86	0.000	
34	   O	21.597	51.059	84.696	O.2	4	PRO86	0.000	
35	  CB	20.233	53.005	82.750	C.3	4	PRO86	0.000	
36	  CG	19.764	52.222	81.586	C.3	4	PRO86	0.000	
37	  CD	20.666	51.035	81.521	C.3	4	PRO86	0.000	
38	   N	21.479	53.342	88.406	N.am	5	TRP88	0.000	
39	  CA	20.913	54.221	89.428	C.3	5	TRP88	0.000	
40	   C	21.722	54.071	90.712	C.2	5	TRP88	0.000	
41	   O	22.007	52.960	91.135	O.2	5	TRP88	0.000	
42	  CB	19.447	53.861	89.690	C.3	5	TRP88	0.000	
43	  CG	18.811	54.660	90.795	C.2	5	TRP88	0.000	
44	 CD1	18.673	56.022	90.854	C.2	5	TRP88	0.000	
45	 CD2	18.201	54.146	91.991	C.2	5	TRP88	0.000	
46	 CE2	17.723	55.257	92.725	C.2	5	TRP88	0.000	
47	 CE3	18.011	52.856	92.514	C.2	5	TRP88	0.000	
48	 NE1	18.028	56.385	92.010	N.pl3	5	TRP88	0.000	
49	 CZ2	17.090	55.117	93.953	C.2	5	TRP88	0.000	
50	 CZ3	17.390	52.720	93.737	C.2	5	TRP88	0.000	
51	 CH2	16.947	53.845	94.452	C.2	5	TRP88	0.000	
52	   N	19.959	54.854	97.618	N.am	6	PHE91	0.000	
53	  CA	20.011	55.777	98.744	C.3	6	PHE91	0.000	
54	   C	21.212	55.559	99.670	C.2	6	PHE91	0.000	
55	   O	21.545	56.439	100.449	O.2	6	PHE91	0.000	
56	  CB	18.690	55.717	99.521	C.3	6	PHE91	0.000	
57	  CG	17.477	55.961	98.654	C.2	6	PHE91	0.000	
58	 CD1	17.399	57.102	97.854	C.2	6	PHE91	0.000	
59	 CD2	16.419	55.054	98.630	C.2	6	PHE91	0.000	
60	 CE1	16.291	57.344	97.050	C.2	6	PHE91	0.000	
61	 CE2	15.308	55.290	97.826	C.2	6	PHE91	0.000	
62	  CZ	15.257	56.436	97.020	C.2	6	PHE91	0.000	
63	   N	22.831	50.338	91.200	N.am	7	GLN96	0.000	
64	  CA	21.810	49.385	90.809	C.3	7	GLN96	0.000	
65	   C	21.659	49.416	89.291	C.2	7	GLN96	0.000	
66	   O	21.308	50.450	88.727	O.2	7	GLN96	0.000	
67	  CB	20.490	49.734	91.465	C.3	7	GLN96	0.000	
68	  CG	19.337	48.830	91.041	C.3	7	GLN96	0.000	
69	  CD	18.183	48.882	92.027	C.2	7	GLN96	0.000	
70	 NE2	17.007	49.266	91.548	N.pl3	7	GLN96	0.000	
71	 OE1	18.353	48.570	93.216	O.2	7	GLN96	0.000	
72	   N	19.977	48.747	85.631	N.am	8	TYR98	0.000	
73	  CA	18.610	48.726	85.067	C.3	8	TYR98	0.000	
74	   C	18.628	48.108	83.662	C.2	8	TYR98	0.000	
75	   O	19.702	47.902	83.113	O.2	8	TYR98	0.000	
76	  CB	18.041	50.149	85.034	C.3	8	TYR98	0.000	
77	  CG	17.341	50.540	86.320	C.2	8	TYR98	0.000	
78	 CD1	18.068	50.755	87.494	C.2	8	TYR98	0.000	
79	 CD2	15.961	50.696	86.372	C.2	8	TYR98	0.000	
80	 CE1	17.433	51.101	88.688	C.2	8	TYR98	0.000	
81	 CE2	15.315	51.053	87.564	C.2	8	TYR98	0.000	
82	  CZ	16.055	51.250	88.722	C.2	8	TYR98	0.000	
83	  OH	15.439	51.601	89.918	O.3	8	TYR98	0.000	
84	   N	17.448	47.776	83.080	N.am	9	PRO99	0.000	
85	  CA	17.444	47.120	81.763	C.3	9	PRO99	0.000	
86	   C	18.246	47.898	80.706	C.2	9	PRO99	0.000	
87	   O	18.330	49.124	80.769	O.2	9	PRO99	0.000	
88	  CB	15.950	47.065	81.396	C.3	9	PRO99	0.000	
89	  CG	15.245	46.998	82.723	C.3	9	PRO99	0.000	
90	  CD	16.088	47.857	83.653	C.3	9	PRO99	0.000	
91	   N	18.851	47.178	79.771	N.am	10	THR100	0.000	
92	  CA	19.749	47.783	78.795	C.3	10	THR100	0.000	
93	   C	18.969	48.469	77.678	C.2	10	THR100	0.000	
94	   O	17.786	48.208	77.508	O.2	10	THR100	0.000	
95	  CB	20.678	46.732	78.182	C.3	10	THR100	0.000	
96	 CG2	21.752	46.322	79.188	C.3	10	THR100	0.000	
97	 OG1	19.900	45.581	77.834	O.3	10	THR100	0.000	
98	   N	19.636	49.355	76.942	N.am	11	LEU101	0.000	
99	  CA	19.054	49.995	75.743	C.3	11	LEU101	0.000	
100	   C	19.891	49.659	74.527	C.2	11	LEU101	0.000	
101	   O	21.085	49.976	74.503	O.2	11	LEU101	0.000	
102	  CB	19.051	51.514	75.867	C.3	11	LEU101	0.000	
103	  CG	18.071	52.189	76.812	C.3	11	LEU101	0.000	
104	 CD1	18.748	52.507	78.130	C.3	11	LEU101	0.000	
105	 CD2	17.558	53.469	76.182	C.3	11	LEU101	0.000	
106	   N	13.777	54.997	75.836	N.am	12	ARG107	0.000	
107	  CA	12.760	54.510	76.770	C.3	12	ARG107	0.000	
108	   C	12.244	55.675	77.599	C.2	12	ARG107	0.000	
109	   O	13.021	56.478	78.104	O.2	12	ARG107	0.000	
110	  CB	13.347	53.443	77.698	C.3	12	ARG107	0.000	
111	  CG	13.935	52.221	77.010	C.3	12	ARG107	0.000	
112	  CD	12.914	51.130	76.790	C.3	12	ARG107	0.000	
113	  NE	13.521	49.940	76.187	N.pl3	12	ARG107	0.000	
114	  CZ	13.806	49.793	74.887	C.cat	12	ARG107	0.000	
115	 NH1	13.540	50.760	74.023	N.pl3	12	ARG107	0.000	
116	 NH2	14.366	48.667	74.441	N.pl3	12	ARG107	0.000	
117	   N	10.919	56.613	81.011	N.am	13	ILE109	0.000	
118	  CA	10.967	55.969	82.323	C.3	13	ILE109	0.000	
119	   C	10.552	56.915	83.420	C.2	13	ILE109	0.000	
120	   O	10.619	58.128	83.261	O.2	13	ILE109	0.000	
121	  CB	12.372	55.418	82.642	C.3	13	ILE109	0.000	
122	 CG1	13.404	56.543	82.811	C.3	13	ILE109	0.000	
123	 CG2	12.836	54.474	81.545	C.3	13	ILE109	0.000	
124	 CD1	13.688	56.953	84.241	C.3	13	ILE109	0.000	
125	   N	10.130	56.333	84.539	N.am	14	HIE110	0.000	
126	  CA	9.737	57.086	85.731	C.3	14	HIE110	0.000	
127	   C	10.885	57.084	86.739	C.2	14	HIE110	0.000	
128	   O	11.317	56.036	87.189	O.2	14	HIE110	0.000	
129	  CB	8.480	56.475	86.345	C.3	14	HIE110	0.000	
130	  CG	7.290	56.556	85.448	C.2	14	HIE110	0.000	
131	 CD2	6.489	55.596	84.930	C.2	14	HIE110	0.000	
132	 ND1	6.827	57.752	84.948	N.2	14	HIE110	0.000	
133	 CE1	5.788	57.529	84.165	C.2	14	HIE110	0.000	
134	 NE2	5.562	56.228	84.136	N.pl3	14	HIE110	0.000	
135	   N	11.378	58.272	87.063	N.am	15	SER111	0.000	
136	  CA	12.424	58.456	88.051	C.3	15	SER111	0.000	
137	   C	11.951	59.520	89.022	C.2	15	SER111	0.000	
138	   O	10.755	59.744	89.139	O.2	15	SER111	0.000	
139	  CB	13.738	58.867	87.387	C.3	15	SER111	0.000	
140	  OG	14.820	58.815	88.309	O.3	15	SER111	0.000	
141	   N	12.881	60.160	89.727	N.am	16	TYR112	0.000	
142	  CA	12.538	61.116	90.780	C.3	16	TYR112	0.000	
143	   C	13.557	62.242	90.858	C.2	16	TYR112	0.000	
144	   O	14.737	62.049	90.513	O.2	16	TYR112	0.000	
145	  CB	12.467	60.405	92.129	C.3	16	TYR112	0.000	
146	  CG	11.316	59.445	92.235	C.2	16	TYR112	0.000	
147	 CD1	11.447	58.126	91.813	C.2	16	TYR112	0.000	
148	 CD2	10.084	59.863	92.719	C.2	16	TYR112	0.000	
149	 CE1	10.380	57.244	91.877	C.2	16	TYR112	0.000	
150	 CE2	9.010	58.991	92.784	C.2	16	TYR112	0.000	
151	  CZ	9.166	57.684	92.366	C.2	16	TYR112	0.000	
152	  OH	8.108	56.814	92.440	O.3	16	TYR112	0.000	
153	   N	17.520	62.133	92.046	N.am	17	HIS115	0.000	
154	  CA	18.100	60.813	91.848	C.3	17	HIS115	0.000	
155	   C	19.296	60.882	90.902	C.2	17	HIS115	0.000	
156	   O	19.320	61.676	89.961	O.2	17	HIS115	0.000	
157	  CB	17.052	59.835	91.343	C.3	17	HIS115	0.000	
158	  CG	16.095	59.393	92.400	C.2	17	HIS115	0.000	
159	 CD2	15.724	59.973	93.569	C.2	17	HIS115	0.000	
160	 ND1	15.429	58.193	92.341	N.pl3	17	HIS115	0.000	
161	 CE1	14.675	58.058	93.419	C.2	17	HIS115	0.000	
162	 NE2	14.827	59.130	94.172	N.pl3	17	HIS115	0.000	
163	   N	22.031	59.123	88.223	N.am	18	TRP117	0.000	
164	  CA	22.194	58.105	87.199	C.3	18	TRP117	0.000	
165	   C	23.517	58.280	86.463	C.2	18	TRP117	0.000	
166	   O	24.006	59.403	86.297	O.2	18	TRP117	0.000	
167	  CB	21.111	58.253	86.146	C.3	18	TRP117	0.000	
168	  CG	19.743	57.955	86.582	C.2	18	TRP117	0.000	
169	 CD1	18.858	58.828	87.096	C.2	18	TRP117	0.000	
170	 CD2	19.067	56.700	86.477	C.2	18	TRP117	0.000	
171	 CE2	17.770	56.888	86.967	C.2	18	TRP117	0.000	
172	 CE3	19.435	55.432	86.019	C.2	18	TRP117	0.000	
173	 NE1	17.663	58.203	87.331	N.pl3	18	TRP117	0.000	
174	 CZ2	16.837	55.863	87.019	C.2	18	TRP117	0.000	
175	 CZ3	18.505	54.408	86.069	C.2	18	TRP117	0.000	
176	 CH2	17.218	54.635	86.561	C.2	18	TRP117	0.000	
@<TRIPOS>BOND
1 1 2 1
2 2 3 1
3 2 5 1
4 3 4 2
5 5 6 1
6 6 7 1
7 6 8 2
8 9 10 1
9 10 11 1
10 10 13 1
11 11 12 2
12 13 14 1
13 14 15 1
14 15 16 1
15 16 17 1
16 17 18 2
17 17 19 1
18 20 21 1
19 21 22 1
20 21 24 1
21 22 23 2
22 24 25 1
23 25 26 2
24 25 27 1
25 26 28 1
26 27 29 2
27 28 30 2
28 29 30 1
29 31 32 1
30 31 37 1
31 32 33 1
32 32 35 1
33 33 34 2
34 35 36 1
35 36 37 1
36 38 39 1
37 39 40 1
38 39 42 1
39 40 41 2
40 42 43 1
41 43 44 2
42 43 45 1
43 44 48 1
44 45 46 2
45 45 47 1
46 46 49 1
47 47 50 2
48 46 48 1
49 49 51 2
50 50 51 1
51 52 53 1
52 53 54 1
53 53 56 1
54 54 55 2
55 56 57 1
56 57 58 2
57 57 59 1
58 58 60 1
59 59 61 2
60 60 62 2
61 61 62 1
62 63 64 1
63 64 65 1
64 64 67 1
65 65 66 2
66 67 68 1
67 68 69 1
68 69 70 1
69 69 71 2
70 72 73 1
71 73 74 1
72 73 76 1
73 74 75 2
74 74 84 1
75 76 77 1
76 77 78 2
77 77 79 1
78 78 80 1
79 79 81 2
80 80 82 2
81 81 82 1
82 82 83 1
83 84 85 1
84 84 90 1
85 85 86 1
86 85 88 1
87 86 87 2
88 86 91 1
89 88 89 1
90 89 90 1
91 91 92 1
92 92 93 1
93 92 95 1
94 93 94 2
95 93 98 1
96 95 96 1
97 95 97 1
98 98 99 1
99 99 100 1
100 99 102 1
101 100 101 2
102 102 103 1
103 103 104 1
104 103 105 1
105 106 107 1
106 107 108 1
107 107 110 1
108 108 109 2
109 110 111 1
110 111 112 1
111 112 113 1
112 113 114 1
113 114 115 2
114 114 116 1
115 117 118 1
116 118 119 1
117 118 121 1
118 119 120 2
119 119 125 1
120 121 122 1
121 121 123 1
122 122 124 1
123 125 126 1
124 126 127 1
125 126 129 1
126 127 128 2
127 127 135 1
128 129 130 1
129 130 131 2
130 130 132 1
131 131 134 1
132 132 133 2
133 133 134 1
134 135 136 1
135 136 137 1
136 136 139 1
137 137 138 2
138 137 141 1
139 139 140 1
140 141 142 1
141 142 143 1
142 142 145 1
143 143 144 2
144 145 146 1
145 146 147 2
146 146 148 1
147 147 149 1
148 148 150 2
149 149 151 2
150 150 151 1
151 151 152 1
152 153 154 1
153 154 155 1
154 154 157 1
155 155 156 2
156 157 158 1
157 158 159 2
158 158 160 1
159 159 162 1
160 160 161 2
161 161 162 1
162 163 164 1
163 164 165 1
164 164 167 1
165 165 166 2
166 167 168 1
167 168 169 2
168 168 170 1
169 169 173 1
170 170 171 2
171 170 172 1
172 171 174 1
173 172 175 2
174 171 173 1
175 174 176 2
176 175 176 1
@<TRIPOS>SUBSTRUCTURE
1	ASN67	1	RESIDUE	1 A	ASN
2	ARG69	9	RESIDUE	1 A	ARG
3	PHE76	20	RESIDUE	1 A	PHE
4	PRO86	31	RESIDUE	1 A	PRO
5	TRP88	38	RESIDUE	1 A	TRP
6	PHE91	52	RESIDUE	1 A	PHE
7	GLN96	63	RESIDUE	1 A	GLN
8	TYR98	72	RESIDUE	1 A	TYR
9	PRO99	84	RESIDUE	1 A	PRO
10	THR100	91	RESIDUE	1 A	THR
11	LEU101	98	RESIDUE	1 A	LEU
12	ARG107	106	RESIDUE	1 A	ARG
13	ILE109	117	RESIDUE	1 A	ILE
14	HIE110	125	RESIDUE	1 A	HIE
15	SER111	135	RESIDUE	1 A	SER
16	TYR112	141	RESIDUE	1 A	TYR
17	HIS115	153	RESIDUE	1 A	HIS
18	TRP117	163	RESIDUE	1 A	TRP
