# created with PyMOL 2.5.2
@<TRIPOS>MOLECULE
BRD4_5NVY_E3ligase
158 159 16              
SMALL
USER_CHARGES
@<TRIPOS>ATOM
1	   N	15.211	58.238	77.961	N.am	1	PHE76	0.000	
2	  CA	16.557	57.755	77.659	C.3	1	PHE76	0.000	
3	   C	16.559	57.579	76.150	C.2	1	PHE76	0.000	
4	   O	15.759	56.816	75.625	O.2	1	PHE76	0.000	
5	  CB	16.883	56.399	78.317	C.3	1	PHE76	0.000	
6	  CG	16.895	56.396	79.827	C.2	1	PHE76	0.000	
7	 CD1	17.075	57.562	80.585	C.2	1	PHE76	0.000	
8	 CD2	16.775	55.184	80.502	C.2	1	PHE76	0.000	
9	 CE1	17.099	57.508	81.977	C.2	1	PHE76	0.000	
10	 CE2	16.802	55.129	81.887	C.2	1	PHE76	0.000	
11	  CZ	16.966	56.290	82.625	C.2	1	PHE76	0.000	
12	   N	21.583	51.393	81.464	N.am	2	PRO86	0.000	
13	  CA	21.385	52.446	82.460	C.3	2	PRO86	0.000	
14	   C	21.611	51.922	83.880	C.2	2	PRO86	0.000	
15	   O	21.087	50.869	84.247	O.2	2	PRO86	0.000	
16	  CB	19.921	52.869	82.267	C.3	2	PRO86	0.000	
17	  CG	19.400	52.083	81.112	C.3	2	PRO86	0.000	
18	  CD	20.297	50.902	80.941	C.3	2	PRO86	0.000	
19	   N	21.142	53.051	87.737	N.am	3	TRP88	0.000	
20	  CA	20.596	53.923	88.770	C.3	3	TRP88	0.000	
21	   C	21.449	53.763	90.015	C.2	3	TRP88	0.000	
22	   O	21.756	52.641	90.411	O.2	3	TRP88	0.000	
23	  CB	19.146	53.548	89.075	C.3	3	TRP88	0.000	
24	  CG	18.516	54.353	90.166	C.2	3	TRP88	0.000	
25	 CD1	18.421	55.710	90.239	C.2	3	TRP88	0.000	
26	 CD2	17.883	53.841	91.342	C.2	3	TRP88	0.000	
27	 CE2	17.428	54.950	92.086	C.2	3	TRP88	0.000	
28	 CE3	17.653	52.551	91.836	C.2	3	TRP88	0.000	
29	 NE1	17.771	56.078	91.393	N.pl3	3	TRP88	0.000	
30	 CZ2	16.758	54.811	93.295	C.2	3	TRP88	0.000	
31	 CZ3	16.986	52.410	93.028	C.2	3	TRP88	0.000	
32	 CH2	16.551	53.535	93.756	C.3	3	TRP88	0.000	
33	   N	21.212	53.931	93.712	N.am	4	ASN90	0.000	
34	  CA	20.120	53.899	94.691	C.3	4	ASN90	0.000	
35	   C	20.434	54.663	95.992	C.2	4	ASN90	0.000	
36	   O	21.492	55.294	96.118	O.2	4	ASN90	0.000	
37	  CB	19.627	52.450	94.924	C.3	4	ASN90	0.000	
38	  CG	20.539	51.617	95.815	C.2	4	ASN90	0.000	
39	 ND2	20.431	50.307	95.657	N.pl3	4	ASN90	0.000	
40	 OD1	21.316	52.122	96.629	O.2	4	ASN90	0.000	
41	   N	19.514	54.582	96.954	N.am	5	PHE91	0.000	
42	  CA	19.502	55.476	98.113	C.3	5	PHE91	0.000	
43	   C	20.658	55.262	99.084	C.2	5	PHE91	0.000	
44	   O	21.001	56.172	99.840	O.2	5	PHE91	0.000	
45	  CB	18.179	55.341	98.870	C.3	5	PHE91	0.000	
46	  CG	16.958	55.595	98.024	C.2	5	PHE91	0.000	
47	 CD1	16.829	56.779	97.297	C.2	5	PHE91	0.000	
48	 CD2	15.927	54.660	97.966	C.2	5	PHE91	0.000	
49	 CE1	15.703	57.020	96.523	C.2	5	PHE91	0.000	
50	 CE2	14.798	54.897	97.195	C.2	5	PHE91	0.000	
51	  CZ	14.686	56.080	96.471	C.2	5	PHE91	0.000	
52	   N	22.322	50.002	90.734	N.am	6	GLN96	0.000	
53	  CA	21.316	49.068	90.239	C.3	6	GLN96	0.000	
54	   C	21.246	49.141	88.708	C.2	6	GLN96	0.000	
55	   O	21.045	50.223	88.159	O.2	6	GLN96	0.000	
56	  CB	19.946	49.407	90.828	C.3	6	GLN96	0.000	
57	  CG	18.842	48.435	90.429	C.3	6	GLN96	0.000	
58	  CD	17.514	48.743	91.089	C.2	6	GLN96	0.000	
59	 NE2	16.432	48.593	90.330	N.pl3	6	GLN96	0.000	
60	 OE1	17.455	49.104	92.268	O.2	6	GLN96	0.000	
61	   N	19.491	48.525	84.998	N.am	7	TYR98	0.000	
62	  CA	18.165	48.542	84.392	C.3	7	TYR98	0.000	
63	   C	18.213	47.833	83.035	C.2	7	TYR98	0.000	
64	   O	19.301	47.497	82.553	O.2	7	TYR98	0.000	
65	  CB	17.687	49.990	84.270	C.3	7	TYR98	0.000	
66	  CG	16.964	50.435	85.506	C.2	7	TYR98	0.000	
67	 CD1	17.660	50.684	86.689	C.2	7	TYR98	0.000	
68	 CD2	15.577	50.555	85.522	C.2	7	TYR98	0.000	
69	 CE1	16.996	51.070	87.842	C.2	7	TYR98	0.000	
70	 CE2	14.904	50.939	86.672	C.2	7	TYR98	0.000	
71	  CZ	15.618	51.195	87.830	C.2	7	TYR98	0.000	
72	  OH	14.967	51.574	88.974	O.3	7	TYR98	0.000	
73	   N	17.038	47.571	82.417	N.am	8	PRO99	0.000	
74	  CA	17.065	46.908	81.112	C.3	8	PRO99	0.000	
75	   C	17.876	47.688	80.082	C.2	8	PRO99	0.000	
76	   O	17.940	48.920	80.150	O.2	8	PRO99	0.000	
77	  CB	15.588	46.851	80.719	C.3	8	PRO99	0.000	
78	  CG	14.859	46.834	82.006	C.3	8	PRO99	0.000	
79	  CD	15.655	47.739	82.903	C.3	8	PRO99	0.000	
80	   N	19.144	49.426	76.576	N.am	9	LEU101	0.000	
81	  CA	18.650	50.067	75.337	C.3	9	LEU101	0.000	
82	   C	19.525	49.685	74.145	C.2	9	LEU101	0.000	
83	   O	20.723	49.958	74.161	O.2	9	LEU101	0.000	
84	  CB	18.663	51.597	75.445	C.3	9	LEU101	0.000	
85	  CG	17.619	52.247	76.361	C.3	9	LEU101	0.000	
86	 CD1	18.195	52.443	77.750	C.3	9	LEU101	0.000	
87	 CD2	17.138	53.575	75.780	C.3	9	LEU101	0.000	
88	   N	13.507	54.810	75.341	N.am	10	ARG107	0.000	
89	  CA	12.518	54.296	76.277	C.3	10	ARG107	0.000	
90	   C	11.982	55.493	77.049	C.2	10	ARG107	0.000	
91	   O	12.770	56.319	77.507	O.2	10	ARG107	0.000	
92	  CB	13.163	53.304	77.250	C.3	10	ARG107	0.000	
93	  CG	13.829	52.079	76.625	C.3	10	ARG107	0.000	
94	  CD	12.814	51.101	76.063	C.3	10	ARG107	0.000	
95	  NE	13.376	49.758	75.887	N.pl3	10	ARG107	0.000	
96	  CZ	13.860	49.238	74.751	C.cat	10	ARG107	0.000	
97	 NH1	13.891	49.925	73.602	N.pl3	10	ARG107	0.000	
98	 NH2	14.333	47.993	74.765	N.pl3	10	ARG107	0.000	
99	   N	10.613	56.400	80.431	N.am	11	ILE109	0.000	
100	  CA	10.722	55.754	81.726	C.3	11	ILE109	0.000	
101	   C	10.260	56.683	82.818	C.2	11	ILE109	0.000	
102	   O	10.248	57.900	82.646	O.2	11	ILE109	0.000	
103	  CB	12.163	55.276	82.008	C.3	11	ILE109	0.000	
104	 CG1	13.160	56.443	82.184	C.3	11	ILE109	0.000	
105	 CG2	12.639	54.344	80.898	C.3	11	ILE109	0.000	
106	 CD1	13.460	56.824	83.624	C.3	11	ILE109	0.000	
107	   N	9.890	56.083	83.942	N.am	12	HIS110	0.000	
108	  CA	9.532	56.807	85.149	C.3	12	HIS110	0.000	
109	   C	10.693	56.762	86.144	C.2	12	HIS110	0.000	
110	   O	11.117	55.681	86.566	O.2	12	HIS110	0.000	
111	  CB	8.280	56.191	85.763	C.3	12	HIS110	0.000	
112	  CG	7.070	56.332	84.902	C.2	12	HIS110	0.000	
113	 CD2	6.473	55.469	84.048	C.2	12	HIS110	0.000	
114	 ND1	6.339	57.498	84.843	N.pl3	12	HIS110	0.000	
115	 CE1	5.337	57.345	83.995	C.2	12	HIS110	0.000	
116	 NE2	5.395	56.122	83.500	N.pl3	12	HIS110	0.000	
117	   N	11.216	57.942	86.474	N.am	13	SER111	0.000	
118	  CA	12.179	58.123	87.558	C.3	13	SER111	0.000	
119	   C	11.606	59.157	88.534	C.2	13	SER111	0.000	
120	   O	10.391	59.376	88.566	O.2	13	SER111	0.000	
121	  CB	13.543	58.554	86.999	C.3	13	SER111	0.000	
122	  OG	14.579	58.410	87.960	O.3	13	SER111	0.000	
123	   N	12.462	59.743	89.369	N.am	14	TYR112	0.000	
124	  CA	12.052	60.808	90.286	C.3	14	TYR112	0.000	
125	   C	13.117	61.899	90.311	C.2	14	TYR112	0.000	
126	   O	14.246	61.672	89.879	O.2	14	TYR112	0.000	
127	  CB	11.802	60.248	91.695	C.3	14	TYR112	0.000	
128	  CG	10.760	59.153	91.746	C.2	14	TYR112	0.000	
129	 CD1	11.087	57.841	91.402	C.2	14	TYR112	0.000	
130	 CD2	9.444	59.426	92.122	C.2	14	TYR112	0.000	
131	 CE1	10.138	56.832	91.431	C.2	14	TYR112	0.000	
132	 CE2	8.484	58.422	92.153	C.2	14	TYR112	0.000	
133	  CZ	8.838	57.128	91.809	C.2	14	TYR112	0.000	
134	  OH	7.908	56.122	91.837	O.3	14	TYR112	0.000	
135	   N	17.127	61.849	91.580	N.am	15	HIS115	0.000	
136	  CA	17.693	60.517	91.340	C.3	15	HIS115	0.000	
137	   C	18.912	60.607	90.427	C.2	15	HIS115	0.000	
138	   O	19.018	61.517	89.615	O.2	15	HIS115	0.000	
139	  CB	16.643	59.562	90.771	C.3	15	HIS115	0.000	
140	  CG	15.682	59.062	91.801	C.2	15	HIS115	0.000	
141	 CD2	15.236	59.628	92.947	C.2	15	HIS115	0.000	
142	 ND1	15.105	57.813	91.744	N.pl3	15	HIS115	0.000	
143	 CE1	14.324	57.641	92.796	C.2	15	HIS115	0.000	
144	 NE2	14.388	58.728	93.543	N.pl3	15	HIS115	0.000	
145	   N	21.491	58.835	87.661	N.am	16	TRP117	0.000	
146	  CA	21.756	57.814	86.665	C.3	16	TRP117	0.000	
147	   C	23.086	58.073	85.990	C.2	16	TRP117	0.000	
148	   O	23.496	59.226	85.841	O.2	16	TRP117	0.000	
149	  CB	20.702	57.840	85.579	C.3	16	TRP117	0.000	
150	  CG	19.311	57.637	86.013	C.2	16	TRP117	0.000	
151	 CD1	18.456	58.583	86.485	C.2	16	TRP117	0.000	
152	 CD2	18.571	56.421	85.942	C.2	16	TRP117	0.000	
153	 CE2	17.274	56.698	86.407	C.2	16	TRP117	0.000	
154	 CE3	18.882	55.118	85.534	C.2	16	TRP117	0.000	
155	 NE1	17.231	58.026	86.733	N.pl3	16	TRP117	0.000	
156	 CZ2	16.287	55.725	86.483	C.2	16	TRP117	0.000	
157	 CZ3	17.897	54.146	85.606	C.2	16	TRP117	0.000	
158	 CH2	16.615	54.454	86.085	C.2	16	TRP117	0.000	
@<TRIPOS>BOND
1 1 2 1
2 2 3 1
3 2 5 1
4 3 4 2
5 5 6 1
6 6 7 2
7 6 8 1
8 7 9 1
9 8 10 2
10 9 11 2
11 10 11 1
12 12 13 1
13 12 18 1
14 13 14 1
15 13 16 1
16 14 15 2
17 16 17 1
18 17 18 1
19 19 20 1
20 20 21 1
21 20 23 1
22 21 22 2
23 23 24 1
24 24 25 2
25 24 26 1
26 25 29 1
27 26 27 2
28 26 28 1
29 27 30 1
30 28 31 2
31 27 29 1
32 30 32 2
33 31 32 1
34 33 34 1
35 34 35 1
36 34 37 1
37 35 36 2
38 35 41 1
39 37 38 1
40 38 39 1
41 38 40 2
42 41 42 1
43 42 43 1
44 42 45 1
45 43 44 2
46 45 46 1
47 46 47 2
48 46 48 1
49 47 49 1
50 48 50 2
51 49 51 2
52 50 51 1
53 52 53 1
54 53 54 1
55 53 56 1
56 54 55 2
57 56 57 1
58 57 58 1
59 58 59 1
60 58 60 2
61 61 62 1
62 62 63 1
63 62 65 1
64 63 64 2
65 63 73 1
66 65 66 1
67 66 67 2
68 66 68 1
69 67 69 1
70 68 70 2
71 69 71 2
72 70 71 1
73 71 72 1
74 73 74 1
75 73 79 1
76 74 75 1
77 74 77 1
78 75 76 2
79 77 78 1
80 78 79 1
81 80 81 1
82 81 82 1
83 81 84 1
84 82 83 2
85 84 85 1
86 85 86 1
87 85 87 1
88 88 89 1
89 89 90 1
90 89 92 1
91 90 91 2
92 92 93 1
93 93 94 1
94 94 95 1
95 95 96 1
96 96 97 2
97 96 98 1
98 99 100 1
99 100 101 1
100 100 103 1
101 101 102 2
102 101 107 1
103 103 104 1
104 103 105 1
105 104 106 1
106 107 108 1
107 108 109 1
108 108 111 1
109 109 110 2
110 109 117 1
111 111 112 1
112 112 113 2
113 112 114 1
114 113 116 1
115 114 115 2
116 115 116 1
117 117 118 1
118 118 119 1
119 118 121 1
120 119 120 2
121 119 123 1
122 121 122 1
123 123 124 1
124 124 125 1
125 124 127 1
126 125 126 2
127 127 128 1
128 128 129 2
129 128 130 1
130 129 131 1
131 130 132 2
132 131 133 2
133 132 133 1
134 133 134 1
135 135 136 1
136 136 137 1
137 136 139 1
138 137 138 2
139 139 140 1
140 140 141 2
141 140 142 1
142 141 144 1
143 142 143 2
144 143 144 1
145 145 146 1
146 146 147 1
147 146 149 1
148 147 148 2
149 149 150 1
150 150 151 2
151 150 152 1
152 151 155 1
153 152 153 2
154 152 154 1
155 153 156 1
156 154 157 2
157 153 155 1
158 156 158 2
159 157 158 1
@<TRIPOS>SUBSTRUCTURE
1	PHE76	1	RESIDUE	1 A	PHE
2	PRO86	12	RESIDUE	1 A	PRO
3	TRP88	19	RESIDUE	1 A	TRP
4	ASN90	33	RESIDUE	1 A	ASN
5	PHE91	41	RESIDUE	1 A	PHE
6	GLN96	52	RESIDUE	1 A	GLN
7	TYR98	61	RESIDUE	1 A	TYR
8	PRO99	73	RESIDUE	1 A	PRO
9	LEU101	80	RESIDUE	1 A	LEU
10	ARG107	88	RESIDUE	1 A	ARG
11	ILE109	99	RESIDUE	1 A	ILE
12	HIS110	107	RESIDUE	1 A	HIS
13	SER111	117	RESIDUE	1 A	SER
14	TYR112	123	RESIDUE	1 A	TYR
15	HIS115	135	RESIDUE	1 A	HIS
16	TRP117	145	RESIDUE	1 A	TRP
