# created with PyMOL 2.5.2
@<TRIPOS>MOLECULE
BRD4_5NVY_E3ligase
173 174 18              
SMALL
USER_CHARGES
@<TRIPOS>ATOM
1	   N	15.966	60.720	97.883	N.am	1	ASN67	0.000	
2	  CA	14.646	60.084	97.981	C.3	1	ASN67	0.000	
3	   C	13.551	61.154	98.075	C.2	1	ASN67	0.000	
4	   O	12.963	61.366	99.139	O.2	1	ASN67	0.000	
5	  CB	14.611	59.121	99.182	C.3	1	ASN67	0.000	
6	  CG	13.357	58.256	99.226	C.2	1	ASN67	0.000	
7	 ND2	13.110	57.647	100.376	N.pl3	1	ASN67	0.000	
8	 OD1	12.630	58.128	98.247	O.2	1	ASN67	0.000	
9	   N	15.211	58.238	77.961	N.am	2	PHE76	0.000	
10	  CA	16.557	57.755	77.659	C.3	2	PHE76	0.000	
11	   C	16.559	57.579	76.150	C.2	2	PHE76	0.000	
12	   O	15.759	56.816	75.625	O.2	2	PHE76	0.000	
13	  CB	16.883	56.399	78.317	C.3	2	PHE76	0.000	
14	  CG	16.895	56.396	79.827	C.2	2	PHE76	0.000	
15	 CD1	17.075	57.562	80.585	C.2	2	PHE76	0.000	
16	 CD2	16.775	55.184	80.502	C.2	2	PHE76	0.000	
17	 CE1	17.099	57.508	81.977	C.2	2	PHE76	0.000	
18	 CE2	16.802	55.129	81.887	C.2	2	PHE76	0.000	
19	  CZ	16.966	56.290	82.625	C.2	2	PHE76	0.000	
20	   N	21.583	51.393	81.464	N.am	3	PRO86	0.000	
21	  CA	21.385	52.446	82.460	C.3	3	PRO86	0.000	
22	   C	21.611	51.922	83.880	C.2	3	PRO86	0.000	
23	   O	21.087	50.869	84.247	O.2	3	PRO86	0.000	
24	  CB	19.921	52.869	82.267	C.3	3	PRO86	0.000	
25	  CG	19.400	52.083	81.112	C.3	3	PRO86	0.000	
26	  CD	20.297	50.902	80.941	C.3	3	PRO86	0.000	
27	   N	21.142	53.051	87.737	N.am	4	TRP88	0.000	
28	  CA	20.596	53.923	88.770	C.3	4	TRP88	0.000	
29	   C	21.449	53.763	90.015	C.2	4	TRP88	0.000	
30	   O	21.756	52.641	90.411	O.2	4	TRP88	0.000	
31	  CB	19.146	53.548	89.075	C.3	4	TRP88	0.000	
32	  CG	18.516	54.353	90.166	C.2	4	TRP88	0.000	
33	 CD1	18.421	55.710	90.239	C.2	4	TRP88	0.000	
34	 CD2	17.883	53.841	91.342	C.2	4	TRP88	0.000	
35	 CE2	17.428	54.950	92.086	C.2	4	TRP88	0.000	
36	 CE3	17.653	52.551	91.836	C.2	4	TRP88	0.000	
37	 NE1	17.771	56.078	91.393	N.pl3	4	TRP88	0.000	
38	 CZ2	16.758	54.811	93.295	C.2	4	TRP88	0.000	
39	 CZ3	16.986	52.410	93.028	C.2	4	TRP88	0.000	
40	 CH2	16.551	53.535	93.756	C.3	4	TRP88	0.000	
41	   N	21.212	53.931	93.712	N.am	5	ASN90	0.000	
42	  CA	20.120	53.899	94.691	C.3	5	ASN90	0.000	
43	   C	20.434	54.663	95.992	C.2	5	ASN90	0.000	
44	   O	21.492	55.294	96.118	O.2	5	ASN90	0.000	
45	  CB	19.627	52.450	94.924	C.3	5	ASN90	0.000	
46	  CG	20.539	51.617	95.815	C.2	5	ASN90	0.000	
47	 ND2	20.431	50.307	95.657	N.pl3	5	ASN90	0.000	
48	 OD1	21.316	52.122	96.629	O.2	5	ASN90	0.000	
49	   N	19.514	54.582	96.954	N.am	6	PHE91	0.000	
50	  CA	19.502	55.476	98.113	C.3	6	PHE91	0.000	
51	   C	20.658	55.262	99.084	C.2	6	PHE91	0.000	
52	   O	21.001	56.172	99.840	O.2	6	PHE91	0.000	
53	  CB	18.179	55.341	98.870	C.3	6	PHE91	0.000	
54	  CG	16.958	55.595	98.024	C.2	6	PHE91	0.000	
55	 CD1	16.829	56.779	97.297	C.2	6	PHE91	0.000	
56	 CD2	15.927	54.660	97.966	C.2	6	PHE91	0.000	
57	 CE1	15.703	57.020	96.523	C.2	6	PHE91	0.000	
58	 CE2	14.798	54.897	97.195	C.2	6	PHE91	0.000	
59	  CZ	14.686	56.080	96.471	C.2	6	PHE91	0.000	
60	   N	22.322	50.002	90.734	N.am	7	GLN96	0.000	
61	  CA	21.316	49.068	90.239	C.3	7	GLN96	0.000	
62	   C	21.246	49.141	88.708	C.2	7	GLN96	0.000	
63	   O	21.045	50.223	88.159	O.2	7	GLN96	0.000	
64	  CB	19.946	49.407	90.828	C.3	7	GLN96	0.000	
65	  CG	18.842	48.435	90.429	C.3	7	GLN96	0.000	
66	  CD	17.514	48.743	91.089	C.2	7	GLN96	0.000	
67	 NE2	16.432	48.593	90.330	N.pl3	7	GLN96	0.000	
68	 OE1	17.455	49.104	92.268	O.2	7	GLN96	0.000	
69	   N	19.491	48.525	84.998	N.am	8	TYR98	0.000	
70	  CA	18.165	48.542	84.392	C.3	8	TYR98	0.000	
71	   C	18.213	47.833	83.035	C.2	8	TYR98	0.000	
72	   O	19.301	47.497	82.553	O.2	8	TYR98	0.000	
73	  CB	17.687	49.990	84.270	C.3	8	TYR98	0.000	
74	  CG	16.964	50.435	85.506	C.2	8	TYR98	0.000	
75	 CD1	17.660	50.684	86.689	C.2	8	TYR98	0.000	
76	 CD2	15.577	50.555	85.522	C.2	8	TYR98	0.000	
77	 CE1	16.996	51.070	87.842	C.2	8	TYR98	0.000	
78	 CE2	14.904	50.939	86.672	C.2	8	TYR98	0.000	
79	  CZ	15.618	51.195	87.830	C.2	8	TYR98	0.000	
80	  OH	14.967	51.574	88.974	O.3	8	TYR98	0.000	
81	   N	17.038	47.571	82.417	N.am	9	PRO99	0.000	
82	  CA	17.065	46.908	81.112	C.3	9	PRO99	0.000	
83	   C	17.876	47.688	80.082	C.2	9	PRO99	0.000	
84	   O	17.940	48.920	80.150	O.2	9	PRO99	0.000	
85	  CB	15.588	46.851	80.719	C.3	9	PRO99	0.000	
86	  CG	14.859	46.834	82.006	C.3	9	PRO99	0.000	
87	  CD	15.655	47.739	82.903	C.3	9	PRO99	0.000	
88	   N	18.502	46.971	79.155	N.am	10	THR100	0.000	
89	  CA	19.386	47.595	78.175	C.3	10	THR100	0.000	
90	   C	18.602	48.313	77.078	C.2	10	THR100	0.000	
91	   O	17.518	47.870	76.712	O.2	10	THR100	0.000	
92	  CB	20.310	46.558	77.515	C.3	10	THR100	0.000	
93	 CG2	21.243	45.938	78.536	C.3	10	THR100	0.000	
94	 OG1	19.521	45.527	76.914	O.3	10	THR100	0.000	
95	   N	19.144	49.426	76.576	N.am	11	LEU101	0.000	
96	  CA	18.650	50.067	75.337	C.3	11	LEU101	0.000	
97	   C	19.525	49.685	74.145	C.2	11	LEU101	0.000	
98	   O	20.723	49.958	74.161	O.2	11	LEU101	0.000	
99	  CB	18.663	51.597	75.445	C.3	11	LEU101	0.000	
100	  CG	17.619	52.247	76.361	C.3	11	LEU101	0.000	
101	 CD1	18.195	52.443	77.750	C.3	11	LEU101	0.000	
102	 CD2	17.138	53.575	75.780	C.3	11	LEU101	0.000	
103	   N	13.507	54.810	75.341	N.am	12	ARG107	0.000	
104	  CA	12.518	54.296	76.277	C.3	12	ARG107	0.000	
105	   C	11.982	55.493	77.049	C.2	12	ARG107	0.000	
106	   O	12.770	56.319	77.507	O.2	12	ARG107	0.000	
107	  CB	13.163	53.304	77.250	C.3	12	ARG107	0.000	
108	  CG	13.829	52.079	76.625	C.3	12	ARG107	0.000	
109	  CD	12.814	51.101	76.063	C.3	12	ARG107	0.000	
110	  NE	13.376	49.758	75.887	N.pl3	12	ARG107	0.000	
111	  CZ	13.860	49.238	74.751	C.cat	12	ARG107	0.000	
112	 NH1	13.891	49.925	73.602	N.pl3	12	ARG107	0.000	
113	 NH2	14.333	47.993	74.765	N.pl3	12	ARG107	0.000	
114	   N	10.613	56.400	80.431	N.am	13	ILE109	0.000	
115	  CA	10.722	55.754	81.726	C.3	13	ILE109	0.000	
116	   C	10.260	56.683	82.818	C.2	13	ILE109	0.000	
117	   O	10.248	57.900	82.646	O.2	13	ILE109	0.000	
118	  CB	12.163	55.276	82.008	C.3	13	ILE109	0.000	
119	 CG1	13.160	56.443	82.184	C.3	13	ILE109	0.000	
120	 CG2	12.639	54.344	80.898	C.3	13	ILE109	0.000	
121	 CD1	13.460	56.824	83.624	C.3	13	ILE109	0.000	
122	   N	9.890	56.083	83.942	N.am	14	HIS110	0.000	
123	  CA	9.532	56.807	85.149	C.3	14	HIS110	0.000	
124	   C	10.693	56.762	86.144	C.2	14	HIS110	0.000	
125	   O	11.117	55.681	86.566	O.2	14	HIS110	0.000	
126	  CB	8.280	56.191	85.763	C.3	14	HIS110	0.000	
127	  CG	7.070	56.332	84.902	C.2	14	HIS110	0.000	
128	 CD2	6.473	55.469	84.048	C.2	14	HIS110	0.000	
129	 ND1	6.339	57.498	84.843	N.pl3	14	HIS110	0.000	
130	 CE1	5.337	57.345	83.995	C.2	14	HIS110	0.000	
131	 NE2	5.395	56.122	83.500	N.pl3	14	HIS110	0.000	
132	   N	11.216	57.942	86.474	N.am	15	SER111	0.000	
133	  CA	12.179	58.123	87.558	C.3	15	SER111	0.000	
134	   C	11.606	59.157	88.534	C.2	15	SER111	0.000	
135	   O	10.391	59.376	88.566	O.2	15	SER111	0.000	
136	  CB	13.543	58.554	86.999	C.3	15	SER111	0.000	
137	  OG	14.579	58.410	87.960	O.3	15	SER111	0.000	
138	   N	12.462	59.743	89.369	N.am	16	TYR112	0.000	
139	  CA	12.052	60.808	90.286	C.3	16	TYR112	0.000	
140	   C	13.117	61.899	90.311	C.2	16	TYR112	0.000	
141	   O	14.246	61.672	89.879	O.2	16	TYR112	0.000	
142	  CB	11.802	60.248	91.695	C.3	16	TYR112	0.000	
143	  CG	10.760	59.153	91.746	C.2	16	TYR112	0.000	
144	 CD1	11.087	57.841	91.402	C.2	16	TYR112	0.000	
145	 CD2	9.444	59.426	92.122	C.2	16	TYR112	0.000	
146	 CE1	10.138	56.832	91.431	C.2	16	TYR112	0.000	
147	 CE2	8.484	58.422	92.153	C.2	16	TYR112	0.000	
148	  CZ	8.838	57.128	91.809	C.2	16	TYR112	0.000	
149	  OH	7.908	56.122	91.837	O.3	16	TYR112	0.000	
150	   N	17.127	61.849	91.580	N.am	17	HIS115	0.000	
151	  CA	17.693	60.517	91.340	C.3	17	HIS115	0.000	
152	   C	18.912	60.607	90.427	C.2	17	HIS115	0.000	
153	   O	19.018	61.517	89.615	O.2	17	HIS115	0.000	
154	  CB	16.643	59.562	90.771	C.3	17	HIS115	0.000	
155	  CG	15.682	59.062	91.801	C.2	17	HIS115	0.000	
156	 CD2	15.236	59.628	92.947	C.2	17	HIS115	0.000	
157	 ND1	15.105	57.813	91.744	N.pl3	17	HIS115	0.000	
158	 CE1	14.324	57.641	92.796	C.2	17	HIS115	0.000	
159	 NE2	14.388	58.728	93.543	N.pl3	17	HIS115	0.000	
160	   N	21.491	58.835	87.661	N.am	18	TRP117	0.000	
161	  CA	21.756	57.814	86.665	C.3	18	TRP117	0.000	
162	   C	23.086	58.073	85.990	C.2	18	TRP117	0.000	
163	   O	23.496	59.226	85.841	O.2	18	TRP117	0.000	
164	  CB	20.702	57.840	85.579	C.3	18	TRP117	0.000	
165	  CG	19.311	57.637	86.013	C.2	18	TRP117	0.000	
166	 CD1	18.456	58.583	86.485	C.2	18	TRP117	0.000	
167	 CD2	18.571	56.421	85.942	C.2	18	TRP117	0.000	
168	 CE2	17.274	56.698	86.407	C.2	18	TRP117	0.000	
169	 CE3	18.882	55.118	85.534	C.2	18	TRP117	0.000	
170	 NE1	17.231	58.026	86.733	N.pl3	18	TRP117	0.000	
171	 CZ2	16.287	55.725	86.483	C.2	18	TRP117	0.000	
172	 CZ3	17.897	54.146	85.606	C.2	18	TRP117	0.000	
173	 CH2	16.615	54.454	86.085	C.2	18	TRP117	0.000	
@<TRIPOS>BOND
1 1 2 1
2 2 3 1
3 2 5 1
4 3 4 2
5 5 6 1
6 6 7 1
7 6 8 2
8 9 10 1
9 10 11 1
10 10 13 1
11 11 12 2
12 13 14 1
13 14 15 2
14 14 16 1
15 15 17 1
16 16 18 2
17 17 19 2
18 18 19 1
19 20 21 1
20 20 26 1
21 21 22 1
22 21 24 1
23 22 23 2
24 24 25 1
25 25 26 1
26 27 28 1
27 28 29 1
28 28 31 1
29 29 30 2
30 31 32 1
31 32 33 2
32 32 34 1
33 33 37 1
34 34 35 2
35 34 36 1
36 35 38 1
37 36 39 2
38 35 37 1
39 38 40 2
40 39 40 1
41 41 42 1
42 42 43 1
43 42 45 1
44 43 44 2
45 43 49 1
46 45 46 1
47 46 47 1
48 46 48 2
49 49 50 1
50 50 51 1
51 50 53 1
52 51 52 2
53 53 54 1
54 54 55 2
55 54 56 1
56 55 57 1
57 56 58 2
58 57 59 2
59 58 59 1
60 60 61 1
61 61 62 1
62 61 64 1
63 62 63 2
64 64 65 1
65 65 66 1
66 66 67 1
67 66 68 2
68 69 70 1
69 70 71 1
70 70 73 1
71 71 72 2
72 71 81 1
73 73 74 1
74 74 75 2
75 74 76 1
76 75 77 1
77 76 78 2
78 77 79 2
79 78 79 1
80 79 80 1
81 81 82 1
82 81 87 1
83 82 83 1
84 82 85 1
85 83 84 2
86 83 88 1
87 85 86 1
88 86 87 1
89 88 89 1
90 89 90 1
91 89 92 1
92 90 91 2
93 90 95 1
94 92 93 1
95 92 94 1
96 95 96 1
97 96 97 1
98 96 99 1
99 97 98 2
100 99 100 1
101 100 101 1
102 100 102 1
103 103 104 1
104 104 105 1
105 104 107 1
106 105 106 2
107 107 108 1
108 108 109 1
109 109 110 1
110 110 111 1
111 111 112 2
112 111 113 1
113 114 115 1
114 115 116 1
115 115 118 1
116 116 117 2
117 116 122 1
118 118 119 1
119 118 120 1
120 119 121 1
121 122 123 1
122 123 124 1
123 123 126 1
124 124 125 2
125 124 132 1
126 126 127 1
127 127 128 2
128 127 129 1
129 128 131 1
130 129 130 2
131 130 131 1
132 132 133 1
133 133 134 1
134 133 136 1
135 134 135 2
136 134 138 1
137 136 137 1
138 138 139 1
139 139 140 1
140 139 142 1
141 140 141 2
142 142 143 1
143 143 144 2
144 143 145 1
145 144 146 1
146 145 147 2
147 146 148 2
148 147 148 1
149 148 149 1
150 150 151 1
151 151 152 1
152 151 154 1
153 152 153 2
154 154 155 1
155 155 156 2
156 155 157 1
157 156 159 1
158 157 158 2
159 158 159 1
160 160 161 1
161 161 162 1
162 161 164 1
163 162 163 2
164 164 165 1
165 165 166 2
166 165 167 1
167 166 170 1
168 167 168 2
169 167 169 1
170 168 171 1
171 169 172 2
172 168 170 1
173 171 173 2
174 172 173 1
@<TRIPOS>SUBSTRUCTURE
1	ASN67	1	RESIDUE	1 A	ASN
2	PHE76	9	RESIDUE	1 A	PHE
3	PRO86	20	RESIDUE	1 A	PRO
4	TRP88	27	RESIDUE	1 A	TRP
5	ASN90	41	RESIDUE	1 A	ASN
6	PHE91	49	RESIDUE	1 A	PHE
7	GLN96	60	RESIDUE	1 A	GLN
8	TYR98	69	RESIDUE	1 A	TYR
9	PRO99	81	RESIDUE	1 A	PRO
10	THR100	88	RESIDUE	1 A	THR
11	LEU101	95	RESIDUE	1 A	LEU
12	ARG107	103	RESIDUE	1 A	ARG
13	ILE109	114	RESIDUE	1 A	ILE
14	HIS110	122	RESIDUE	1 A	HIS
15	SER111	132	RESIDUE	1 A	SER
16	TYR112	138	RESIDUE	1 A	TYR
17	HIS115	150	RESIDUE	1 A	HIS
18	TRP117	160	RESIDUE	1 A	TRP
