# created with PyMOL 2.5.2
@<TRIPOS>MOLECULE
BRD4_5NVY_E3ligase
158 158 16              
SMALL
USER_CHARGES
@<TRIPOS>ATOM
1	   N	15.966	60.720	97.883	N.am	1	ASN67	0.000	
2	  CA	14.646	60.084	97.981	C.3	1	ASN67	0.000	
3	   C	13.551	61.154	98.075	C.2	1	ASN67	0.000	
4	   O	12.963	61.366	99.139	O.2	1	ASN67	0.000	
5	  CB	14.611	59.121	99.182	C.3	1	ASN67	0.000	
6	  CG	13.357	58.256	99.226	C.2	1	ASN67	0.000	
7	 ND2	13.110	57.647	100.376	N.pl3	1	ASN67	0.000	
8	 OD1	12.630	58.128	98.247	O.2	1	ASN67	0.000	
9	   N	15.211	58.238	77.961	N.am	2	PHE76	0.000	
10	  CA	16.557	57.755	77.659	C.3	2	PHE76	0.000	
11	   C	16.559	57.579	76.150	C.2	2	PHE76	0.000	
12	   O	15.759	56.816	75.625	O.2	2	PHE76	0.000	
13	  CB	16.883	56.399	78.317	C.3	2	PHE76	0.000	
14	  CG	16.895	56.396	79.827	C.2	2	PHE76	0.000	
15	 CD1	17.075	57.562	80.585	C.2	2	PHE76	0.000	
16	 CD2	16.775	55.184	80.502	C.2	2	PHE76	0.000	
17	 CE1	17.099	57.508	81.977	C.2	2	PHE76	0.000	
18	 CE2	16.802	55.129	81.887	C.2	2	PHE76	0.000	
19	  CZ	16.966	56.290	82.625	C.2	2	PHE76	0.000	
20	   N	21.583	51.393	81.464	N.am	3	PRO86	0.000	
21	  CA	21.385	52.446	82.460	C.3	3	PRO86	0.000	
22	   C	21.611	51.922	83.880	C.2	3	PRO86	0.000	
23	   O	21.087	50.869	84.247	O.2	3	PRO86	0.000	
24	  CB	19.921	52.869	82.267	C.3	3	PRO86	0.000	
25	  CG	19.400	52.083	81.112	C.3	3	PRO86	0.000	
26	  CD	20.297	50.902	80.941	C.3	3	PRO86	0.000	
27	   N	21.142	53.051	87.737	N.am	4	TRP88	0.000	
28	  CA	20.596	53.923	88.770	C.3	4	TRP88	0.000	
29	   C	21.449	53.763	90.015	C.2	4	TRP88	0.000	
30	   O	21.756	52.641	90.411	O.2	4	TRP88	0.000	
31	  CB	19.146	53.548	89.075	C.3	4	TRP88	0.000	
32	  CG	18.516	54.353	90.166	C.2	4	TRP88	0.000	
33	 CD1	18.421	55.710	90.239	C.2	4	TRP88	0.000	
34	 CD2	17.883	53.841	91.342	C.2	4	TRP88	0.000	
35	 CE2	17.428	54.950	92.086	C.2	4	TRP88	0.000	
36	 CE3	17.653	52.551	91.836	C.2	4	TRP88	0.000	
37	 NE1	17.771	56.078	91.393	N.pl3	4	TRP88	0.000	
38	 CZ2	16.758	54.811	93.295	C.2	4	TRP88	0.000	
39	 CZ3	16.986	52.410	93.028	C.3	4	TRP88	0.000	
40	 CH2	16.551	53.535	93.756	C.2	4	TRP88	0.000	
41	   N	19.514	54.582	96.954	N.am	5	PHE91	0.000	
42	  CA	19.502	55.476	98.113	C.3	5	PHE91	0.000	
43	   C	20.658	55.262	99.084	C.2	5	PHE91	0.000	
44	   O	21.001	56.172	99.840	O.2	5	PHE91	0.000	
45	  CB	18.179	55.341	98.870	C.3	5	PHE91	0.000	
46	  CG	16.958	55.595	98.024	C.2	5	PHE91	0.000	
47	 CD1	16.829	56.779	97.297	C.2	5	PHE91	0.000	
48	 CD2	15.927	54.660	97.966	C.2	5	PHE91	0.000	
49	 CE1	15.703	57.020	96.523	C.2	5	PHE91	0.000	
50	 CE2	14.798	54.897	97.195	C.2	5	PHE91	0.000	
51	  CZ	14.686	56.080	96.471	C.2	5	PHE91	0.000	
52	   N	22.322	50.002	90.734	N.am	6	GLN96	0.000	
53	  CA	21.316	49.068	90.239	C.3	6	GLN96	0.000	
54	   C	21.246	49.141	88.708	C.2	6	GLN96	0.000	
55	   O	21.045	50.223	88.159	O.2	6	GLN96	0.000	
56	  CB	19.946	49.407	90.828	C.3	6	GLN96	0.000	
57	  CG	18.842	48.435	90.429	C.3	6	GLN96	0.000	
58	  CD	17.514	48.743	91.089	C.2	6	GLN96	0.000	
59	 NE2	16.432	48.593	90.330	N.pl3	6	GLN96	0.000	
60	 OE1	17.455	49.104	92.268	O.2	6	GLN96	0.000	
61	   N	19.491	48.525	84.998	N.am	7	TYR98	0.000	
62	  CA	18.165	48.542	84.392	C.3	7	TYR98	0.000	
63	   C	18.213	47.833	83.035	C.2	7	TYR98	0.000	
64	   O	19.301	47.497	82.553	O.2	7	TYR98	0.000	
65	  CB	17.687	49.990	84.270	C.3	7	TYR98	0.000	
66	  CG	16.964	50.435	85.506	C.2	7	TYR98	0.000	
67	 CD1	17.660	50.684	86.689	C.2	7	TYR98	0.000	
68	 CD2	15.577	50.555	85.522	C.2	7	TYR98	0.000	
69	 CE1	16.996	51.070	87.842	C.2	7	TYR98	0.000	
70	 CE2	14.904	50.939	86.672	C.2	7	TYR98	0.000	
71	  CZ	15.618	51.195	87.830	C.2	7	TYR98	0.000	
72	  OH	14.967	51.574	88.974	O.3	7	TYR98	0.000	
73	   N	17.038	47.571	82.417	N.am	8	PRO99	0.000	
74	  CA	17.065	46.908	81.112	C.3	8	PRO99	0.000	
75	   C	17.876	47.688	80.082	C.2	8	PRO99	0.000	
76	   O	17.940	48.920	80.150	O.2	8	PRO99	0.000	
77	  CB	15.588	46.851	80.719	C.3	8	PRO99	0.000	
78	  CG	14.859	46.834	82.006	C.3	8	PRO99	0.000	
79	  CD	15.655	47.739	82.903	C.3	8	PRO99	0.000	
80	   N	19.144	49.426	76.576	N.am	9	LEU101	0.000	
81	  CA	18.650	50.067	75.337	C.3	9	LEU101	0.000	
82	   C	19.525	49.685	74.145	C.2	9	LEU101	0.000	
83	   O	20.723	49.958	74.161	O.2	9	LEU101	0.000	
84	  CB	18.663	51.597	75.445	C.3	9	LEU101	0.000	
85	  CG	17.619	52.247	76.361	C.3	9	LEU101	0.000	
86	 CD1	18.195	52.443	77.750	C.3	9	LEU101	0.000	
87	 CD2	17.138	53.575	75.780	C.3	9	LEU101	0.000	
88	   N	13.507	54.810	75.341	N.am	10	ARG107	0.000	
89	  CA	12.518	54.296	76.277	C.3	10	ARG107	0.000	
90	   C	11.982	55.493	77.049	C.2	10	ARG107	0.000	
91	   O	12.770	56.319	77.507	O.2	10	ARG107	0.000	
92	  CB	13.163	53.304	77.250	C.3	10	ARG107	0.000	
93	  CG	13.829	52.079	76.625	C.3	10	ARG107	0.000	
94	  CD	12.814	51.101	76.063	C.3	10	ARG107	0.000	
95	  NE	13.376	49.758	75.887	N.pl3	10	ARG107	0.000	
96	  CZ	13.860	49.238	74.751	C.cat	10	ARG107	0.000	
97	 NH1	13.891	49.925	73.602	N.pl3	10	ARG107	0.000	
98	 NH2	14.333	47.993	74.765	N.pl3	10	ARG107	0.000	
99	   N	10.613	56.400	80.431	N.am	11	ILE109	0.000	
100	  CA	10.722	55.754	81.726	C.3	11	ILE109	0.000	
101	   C	10.260	56.683	82.818	C.2	11	ILE109	0.000	
102	   O	10.248	57.900	82.646	O.2	11	ILE109	0.000	
103	  CB	12.163	55.276	82.008	C.3	11	ILE109	0.000	
104	 CG1	13.160	56.443	82.184	C.3	11	ILE109	0.000	
105	 CG2	12.639	54.344	80.898	C.3	11	ILE109	0.000	
106	 CD1	13.460	56.824	83.624	C.3	11	ILE109	0.000	
107	   N	9.890	56.083	83.942	N.am	12	HIS110	0.000	
108	  CA	9.532	56.807	85.149	C.3	12	HIS110	0.000	
109	   C	10.693	56.762	86.144	C.2	12	HIS110	0.000	
110	   O	11.117	55.681	86.566	O.2	12	HIS110	0.000	
111	  CB	8.280	56.191	85.763	C.3	12	HIS110	0.000	
112	  CG	7.070	56.332	84.902	C.2	12	HIS110	0.000	
113	 CD2	6.473	55.469	84.048	C.2	12	HIS110	0.000	
114	 ND1	6.339	57.498	84.843	N.pl3	12	HIS110	0.000	
115	 CE1	5.337	57.345	83.995	C.2	12	HIS110	0.000	
116	 NE2	5.395	56.122	83.500	N.pl3	12	HIS110	0.000	
117	   N	11.216	57.942	86.474	N.am	13	SER111	0.000	
118	  CA	12.179	58.123	87.558	C.3	13	SER111	0.000	
119	   C	11.606	59.157	88.534	C.2	13	SER111	0.000	
120	   O	10.391	59.376	88.566	O.2	13	SER111	0.000	
121	  CB	13.543	58.554	86.999	C.3	13	SER111	0.000	
122	  OG	14.579	58.410	87.960	O.3	13	SER111	0.000	
123	   N	12.462	59.743	89.369	N.am	14	TYR112	0.000	
124	  CA	12.052	60.808	90.286	C.3	14	TYR112	0.000	
125	   C	13.117	61.899	90.311	C.2	14	TYR112	0.000	
126	   O	14.246	61.672	89.879	O.2	14	TYR112	0.000	
127	  CB	11.802	60.248	91.695	C.3	14	TYR112	0.000	
128	  CG	10.760	59.153	91.746	C.2	14	TYR112	0.000	
129	 CD1	11.087	57.841	91.402	C.2	14	TYR112	0.000	
130	 CD2	9.444	59.426	92.122	C.2	14	TYR112	0.000	
131	 CE1	10.138	56.832	91.431	C.2	14	TYR112	0.000	
132	 CE2	8.484	58.422	92.153	C.2	14	TYR112	0.000	
133	  CZ	8.838	57.128	91.809	C.2	14	TYR112	0.000	
134	  OH	7.908	56.122	91.837	O.3	14	TYR112	0.000	
135	   N	17.127	61.849	91.580	N.am	15	HIS115	0.000	
136	  CA	17.693	60.517	91.340	C.3	15	HIS115	0.000	
137	   C	18.912	60.607	90.427	C.2	15	HIS115	0.000	
138	   O	19.018	61.517	89.615	O.2	15	HIS115	0.000	
139	  CB	16.643	59.562	90.771	C.3	15	HIS115	0.000	
140	  CG	15.682	59.062	91.801	C.2	15	HIS115	0.000	
141	 CD2	15.236	59.628	92.947	C.2	15	HIS115	0.000	
142	 ND1	15.105	57.813	91.744	N.pl3	15	HIS115	0.000	
143	 CE1	14.324	57.641	92.796	C.2	15	HIS115	0.000	
144	 NE2	14.388	58.728	93.543	N.pl3	15	HIS115	0.000	
145	   N	21.491	58.835	87.661	N.am	16	TRP117	0.000	
146	  CA	21.756	57.814	86.665	C.3	16	TRP117	0.000	
147	   C	23.086	58.073	85.990	C.2	16	TRP117	0.000	
148	   O	23.496	59.226	85.841	O.2	16	TRP117	0.000	
149	  CB	20.702	57.840	85.579	C.3	16	TRP117	0.000	
150	  CG	19.311	57.637	86.013	C.2	16	TRP117	0.000	
151	 CD1	18.456	58.583	86.485	C.2	16	TRP117	0.000	
152	 CD2	18.571	56.421	85.942	C.2	16	TRP117	0.000	
153	 CE2	17.274	56.698	86.407	C.2	16	TRP117	0.000	
154	 CE3	18.882	55.118	85.534	C.2	16	TRP117	0.000	
155	 NE1	17.231	58.026	86.733	N.pl3	16	TRP117	0.000	
156	 CZ2	16.287	55.725	86.483	C.2	16	TRP117	0.000	
157	 CZ3	17.897	54.146	85.606	C.2	16	TRP117	0.000	
158	 CH2	16.615	54.454	86.085	C.2	16	TRP117	0.000	
@<TRIPOS>BOND
1 1 2 1
2 2 3 1
3 2 5 1
4 3 4 2
5 5 6 1
6 6 7 1
7 6 8 2
8 9 10 1
9 10 11 1
10 10 13 1
11 11 12 2
12 13 14 1
13 14 15 2
14 14 16 1
15 15 17 1
16 16 18 2
17 17 19 2
18 18 19 1
19 20 21 1
20 20 26 1
21 21 22 1
22 21 24 1
23 22 23 2
24 24 25 1
25 25 26 1
26 27 28 1
27 28 29 1
28 28 31 1
29 29 30 2
30 31 32 1
31 32 33 2
32 32 34 1
33 33 37 1
34 34 35 2
35 34 36 1
36 35 38 1
37 36 39 2
38 35 37 1
39 38 40 2
40 39 40 1
41 41 42 1
42 42 43 1
43 42 45 1
44 43 44 2
45 45 46 1
46 46 47 2
47 46 48 1
48 47 49 1
49 48 50 2
50 49 51 2
51 50 51 1
52 52 53 1
53 53 54 1
54 53 56 1
55 54 55 2
56 56 57 1
57 57 58 1
58 58 59 1
59 58 60 2
60 61 62 1
61 62 63 1
62 62 65 1
63 63 64 2
64 63 73 1
65 65 66 1
66 66 67 2
67 66 68 1
68 67 69 1
69 68 70 2
70 69 71 2
71 70 71 1
72 71 72 1
73 73 74 1
74 73 79 1
75 74 75 1
76 74 77 1
77 75 76 2
78 77 78 1
79 78 79 1
80 80 81 1
81 81 82 1
82 81 84 1
83 82 83 2
84 84 85 1
85 85 86 1
86 85 87 1
87 88 89 1
88 89 90 1
89 89 92 1
90 90 91 2
91 92 93 1
92 93 94 1
93 94 95 1
94 95 96 1
95 96 97 2
96 96 98 1
97 99 100 1
98 100 101 1
99 100 103 1
100 101 102 2
101 101 107 1
102 103 104 1
103 103 105 1
104 104 106 1
105 107 108 1
106 108 109 1
107 108 111 1
108 109 110 2
109 109 117 1
110 111 112 1
111 112 113 2
112 112 114 1
113 113 116 1
114 114 115 2
115 115 116 1
116 117 118 1
117 118 119 1
118 118 121 1
119 119 120 2
120 119 123 1
121 121 122 1
122 123 124 1
123 124 125 1
124 124 127 1
125 125 126 2
126 127 128 1
127 128 129 2
128 128 130 1
129 129 131 1
130 130 132 2
131 131 133 2
132 132 133 1
133 133 134 1
134 135 136 1
135 136 137 1
136 136 139 1
137 137 138 2
138 139 140 1
139 140 141 2
140 140 142 1
141 141 144 1
142 142 143 2
143 143 144 1
144 145 146 1
145 146 147 1
146 146 149 1
147 147 148 2
148 149 150 1
149 150 151 2
150 150 152 1
151 151 155 1
152 152 153 2
153 152 154 1
154 153 156 1
155 154 157 2
156 153 155 1
157 156 158 2
158 157 158 1
@<TRIPOS>SUBSTRUCTURE
1	ASN67	1	RESIDUE	1 A	ASN
2	PHE76	9	RESIDUE	1 A	PHE
3	PRO86	20	RESIDUE	1 A	PRO
4	TRP88	27	RESIDUE	1 A	TRP
5	PHE91	41	RESIDUE	1 A	PHE
6	GLN96	52	RESIDUE	1 A	GLN
7	TYR98	61	RESIDUE	1 A	TYR
8	PRO99	73	RESIDUE	1 A	PRO
9	LEU101	80	RESIDUE	1 A	LEU
10	ARG107	88	RESIDUE	1 A	ARG
11	ILE109	99	RESIDUE	1 A	ILE
12	HIS110	107	RESIDUE	1 A	HIS
13	SER111	117	RESIDUE	1 A	SER
14	TYR112	123	RESIDUE	1 A	TYR
15	HIS115	135	RESIDUE	1 A	HIS
16	TRP117	145	RESIDUE	1 A	TRP
