# created with PyMOL 2.5.2
@<TRIPOS>MOLECULE
BRD4_4W9K_E3ligase
176 176 18              
SMALL
USER_CHARGES
@<TRIPOS>ATOM
1	   N	16.062	60.992	98.092	N.am	1	ASN67	0.000	
2	  CA	14.710	60.428	98.125	C.3	1	ASN67	0.000	
3	   C	13.638	61.535	98.136	C.2	1	ASN67	0.000	
4	   O	13.083	61.858	99.188	O.2	1	ASN67	0.000	
5	  CB	14.550	59.494	99.337	C.3	1	ASN67	0.000	
6	  CG	13.228	58.743	99.332	C.2	1	ASN67	0.000	
7	 ND2	12.742	58.398	100.518	N.pl3	1	ASN67	0.000	
8	 OD1	12.643	58.486	98.277	O.2	1	ASN67	0.000	
9	   N	10.601	61.913	96.034	N.am	2	ARG69	0.000	
10	  CA	9.195	61.565	95.780	C.3	2	ARG69	0.000	
11	   C	8.487	62.488	94.774	C.2	2	ARG69	0.000	
12	   O	7.289	62.352	94.570	O.2	2	ARG69	0.000	
13	  CB	8.377	61.514	97.081	C.3	2	ARG69	0.000	
14	  CG	9.059	60.811	98.245	C.3	2	ARG69	0.000	
15	  CD	8.096	60.614	99.408	C.3	2	ARG69	0.000	
16	  NE	8.672	59.796	100.475	N.pl3	2	ARG69	0.000	
17	  CZ	9.571	60.223	101.364	C.cat	2	ARG69	0.000	
18	 NH1	10.025	61.470	101.335	N.pl3	2	ARG69	0.000	
19	 NH2	10.024	59.392	102.297	N.pl3	2	ARG69	0.000	
20	   N	15.249	58.669	77.825	N.am	3	PHE76	0.000	
21	  CA	16.594	58.170	77.585	C.3	3	PHE76	0.000	
22	   C	16.682	57.987	76.090	C.2	3	PHE76	0.000	
23	   O	15.924	57.191	75.538	O.2	3	PHE76	0.000	
24	  CB	16.824	56.821	78.283	C.3	3	PHE76	0.000	
25	  CG	16.927	56.896	79.788	C.2	3	PHE76	0.000	
26	 CD1	17.009	58.115	80.468	C.2	3	PHE76	0.000	
27	 CD2	17.010	55.728	80.524	C.2	3	PHE76	0.000	
28	 CE1	17.136	58.157	81.842	C.2	3	PHE76	0.000	
29	 CE2	17.145	55.765	81.903	C.2	3	PHE76	0.000	
30	  CZ	17.214	56.979	82.562	C.2	3	PHE76	0.000	
31	   N	21.834	51.931	81.386	N.am	4	PRO86	0.000	
32	  CA	21.600	52.994	82.328	C.3	4	PRO86	0.000	
33	   C	21.880	52.473	83.727	C.2	4	PRO86	0.000	
34	   O	21.591	51.328	84.032	O.2	4	PRO86	0.000	
35	  CB	20.104	53.333	82.137	C.3	4	PRO86	0.000	
36	  CG	19.686	52.644	80.894	C.3	4	PRO86	0.000	
37	  CD	20.579	51.447	80.800	C.3	4	PRO86	0.000	
38	   N	21.390	53.671	87.736	N.am	5	TRP88	0.000	
39	  CA	20.837	54.560	88.755	C.3	5	TRP88	0.000	
40	   C	21.662	54.385	90.025	C.2	5	TRP88	0.000	
41	   O	21.908	53.270	90.460	O.2	5	TRP88	0.000	
42	  CB	19.366	54.195	89.028	C.3	5	TRP88	0.000	
43	  CG	18.750	54.946	90.169	C.2	5	TRP88	0.000	
44	 CD1	18.607	56.295	90.274	C.2	5	TRP88	0.000	
45	 CD2	18.171	54.389	91.353	C.2	5	TRP88	0.000	
46	 CE2	17.721	55.467	92.141	C.2	5	TRP88	0.000	
47	 CE3	18.003	53.084	91.832	C.2	5	TRP88	0.000	
48	 NE1	17.998	56.618	91.456	N.pl3	5	TRP88	0.000	
49	 CZ2	17.120	55.286	93.379	C.2	5	TRP88	0.000	
50	 CZ3	17.405	52.902	93.066	C.2	5	TRP88	0.000	
51	 CH2	16.966	53.999	93.829	C.2	5	TRP88	0.000	
52	   N	19.969	55.007	96.957	N.am	6	PHE91	0.000	
53	  CA	20.007	55.897	98.104	C.3	6	PHE91	0.000	
54	   C	21.216	55.637	99.006	C.2	6	PHE91	0.000	
55	   O	21.578	56.492	99.806	O.2	6	PHE91	0.000	
56	  CB	18.694	55.783	98.887	C.3	6	PHE91	0.000	
57	  CG	17.471	56.062	98.044	C.2	6	PHE91	0.000	
58	 CD1	17.358	57.261	97.341	C.2	6	PHE91	0.000	
59	 CD2	16.447	55.124	97.933	C.2	6	PHE91	0.000	
60	 CE1	16.245	57.526	96.553	C.2	6	PHE91	0.000	
61	 CE2	15.332	55.383	97.149	C.2	6	PHE91	0.000	
62	  CZ	15.236	56.583	96.452	C.2	6	PHE91	0.000	
63	   N	22.804	50.668	90.420	N.am	7	GLN96	0.000	
64	  CA	21.716	49.748	90.134	C.3	7	GLN96	0.000	
65	   C	21.502	49.762	88.615	C.2	7	GLN96	0.000	
66	   O	21.200	50.798	88.044	O.2	7	GLN96	0.000	
67	  CB	20.485	50.196	90.897	C.3	7	GLN96	0.000	
68	  CG	19.584	49.050	91.333	C.3	7	GLN96	0.000	
69	  CD	18.945	49.283	92.697	C.2	7	GLN96	0.000	
70	 NE2	17.623	49.260	92.728	N.pl3	7	GLN96	0.000	
71	 OE1	19.629	49.475	93.708	O.2	7	GLN96	0.000	
72	   N	19.808	49.156	84.993	N.am	8	TYR98	0.000	
73	  CA	18.437	49.187	84.444	C.3	8	TYR98	0.000	
74	   C	18.468	48.576	83.040	C.2	8	TYR98	0.000	
75	   O	19.544	48.325	82.512	O.2	8	TYR98	0.000	
76	  CB	17.904	50.630	84.426	C.3	8	TYR98	0.000	
77	  CG	17.204	50.973	85.712	C.2	8	TYR98	0.000	
78	 CD1	17.924	51.149	86.892	C.2	8	TYR98	0.000	
79	 CD2	15.822	51.062	85.769	C.2	8	TYR98	0.000	
80	 CE1	17.276	51.411	88.104	C.2	8	TYR98	0.000	
81	 CE2	15.168	51.342	86.962	C.2	8	TYR98	0.000	
82	  CZ	15.901	51.516	88.133	C.2	8	TYR98	0.000	
83	  OH	15.259	51.797	89.319	O.3	8	TYR98	0.000	
84	   N	17.297	48.299	82.441	N.am	9	PRO99	0.000	
85	  CA	17.300	47.628	81.128	C.3	9	PRO99	0.000	
86	   C	18.107	48.377	80.053	C.2	9	PRO99	0.000	
87	   O	18.191	49.598	80.096	O.2	9	PRO99	0.000	
88	  CB	15.804	47.578	80.766	C.3	9	PRO99	0.000	
89	  CG	15.124	47.487	82.099	C.3	9	PRO99	0.000	
90	  CD	15.943	48.352	83.026	C.3	9	PRO99	0.000	
91	   N	18.705	47.647	79.111	N.am	10	THR100	0.000	
92	  CA	19.564	48.271	78.120	C.3	10	THR100	0.000	
93	   C	18.751	48.901	77.009	C.2	10	THR100	0.000	
94	   O	17.566	48.611	76.867	O.2	10	THR100	0.000	
95	  CB	20.559	47.277	77.521	C.3	10	THR100	0.000	
96	 CG2	21.563	46.819	78.587	C.3	10	THR100	0.000	
97	 OG1	19.836	46.149	77.028	O.3	10	THR100	0.000	
98	   N	19.409	49.783	76.254	N.am	11	LEU101	0.000	
99	  CA	18.876	50.396	75.043	C.3	11	LEU101	0.000	
100	   C	19.760	50.068	73.831	C.2	11	LEU101	0.000	
101	   O	20.943	50.439	73.808	O.2	11	LEU101	0.000	
102	  CB	18.816	51.916	75.199	C.3	11	LEU101	0.000	
103	  CG	17.918	52.447	76.317	C.3	11	LEU101	0.000	
104	 CD1	18.724	52.775	77.556	C.3	11	LEU101	0.000	
105	 CD2	17.196	53.696	75.849	C.3	11	LEU101	0.000	
106	   N	13.658	55.429	75.219	N.am	12	ARG107	0.000	
107	  CA	12.688	54.889	76.164	C.3	12	ARG107	0.000	
108	   C	12.115	56.046	76.974	C.2	12	ARG107	0.000	
109	   O	12.874	56.915	77.401	O.2	12	ARG107	0.000	
110	  CB	13.385	53.912	77.114	C.3	12	ARG107	0.000	
111	  CG	13.982	52.672	76.459	C.3	12	ARG107	0.000	
112	  CD	12.919	51.629	76.188	C.3	12	ARG107	0.000	
113	  NE	13.481	50.367	75.716	N.pl3	12	ARG107	0.000	
114	  CZ	13.882	50.124	74.467	C.cat	12	ARG107	0.000	
115	 NH1	13.815	51.065	73.536	N.pl3	12	ARG107	0.000	
116	 NH2	14.366	48.927	74.146	N.pl3	12	ARG107	0.000	
117	   N	10.719	56.923	80.510	N.am	13	ILE109	0.000	
118	  CA	10.866	56.270	81.794	C.3	13	ILE109	0.000	
119	   C	10.468	57.217	82.907	C.2	13	ILE109	0.000	
120	   O	10.478	58.432	82.737	O.2	13	ILE109	0.000	
121	  CB	12.304	55.724	82.002	C.3	13	ILE109	0.000	
122	 CG1	13.326	56.853	82.172	C.3	13	ILE109	0.000	
123	 CG2	12.714	54.832	80.837	C.3	13	ILE109	0.000	
124	 CD1	13.466	57.354	83.597	C.3	13	ILE109	0.000	
125	   N	10.110	56.644	84.048	N.am	14	HIS110	0.000	
126	  CA	9.728	57.433	85.210	C.3	14	HIS110	0.000	
127	   C	10.857	57.396	86.233	C.2	14	HIS110	0.000	
128	   O	11.351	56.330	86.604	O.2	14	HIS110	0.000	
129	  CB	8.414	56.917	85.786	C.3	14	HIS110	0.000	
130	  CG	7.248	57.116	84.866	C.2	14	HIS110	0.000	
131	 CD2	6.241	58.019	84.885	C.2	14	HIS110	0.000	
132	 ND1	7.039	56.336	83.750	N.pl3	14	HIS110	0.000	
133	 CE1	5.949	56.742	83.126	C.2	14	HIS110	0.000	
134	 NE2	5.443	57.760	83.797	N.pl3	14	HIS110	0.000	
135	   N	11.285	58.578	86.652	N.am	15	SER111	0.000	
136	  CA	12.367	58.713	87.609	C.3	15	SER111	0.000	
137	   C	11.920	59.805	88.552	C.2	15	SER111	0.000	
138	   O	10.735	60.109	88.605	O.2	15	SER111	0.000	
139	  CB	13.673	59.074	86.904	C.3	15	SER111	0.000	
140	  OG	14.764	59.064	87.811	O.3	15	SER111	0.000	
141	   N	12.842	60.384	89.310	N.am	16	TYR112	0.000	
142	  CA	12.470	61.410	90.285	C.3	16	TYR112	0.000	
143	   C	13.500	62.518	90.316	C.2	16	TYR112	0.000	
144	   O	14.656	62.324	89.907	O.2	16	TYR112	0.000	
145	  CB	12.315	60.800	91.676	C.3	16	TYR112	0.000	
146	  CG	11.159	59.819	91.787	C.2	16	TYR112	0.000	
147	 CD1	11.317	58.492	91.411	C.2	16	TYR112	0.000	
148	 CD2	9.905	60.229	92.245	C.2	16	TYR112	0.000	
149	 CE1	10.271	57.593	91.493	C.2	16	TYR112	0.000	
150	 CE2	8.848	59.331	92.332	C.2	16	TYR112	0.000	
151	  CZ	9.040	58.019	91.956	C.2	16	TYR112	0.000	
152	  OH	8.022	57.118	92.029	O.3	16	TYR112	0.000	
153	   N	17.516	62.397	91.475	N.am	17	HIS115	0.000	
154	  CA	18.063	61.057	91.285	C.3	17	HIS115	0.000	
155	   C	19.234	61.117	90.330	C.2	17	HIS115	0.000	
156	   O	19.191	61.841	89.355	O.2	17	HIS115	0.000	
157	  CB	17.008	60.104	90.746	C.3	17	HIS115	0.000	
158	  CG	16.075	59.596	91.799	C.2	17	HIS115	0.000	
159	 CD2	15.801	60.058	93.042	C.2	17	HIS115	0.000	
160	 ND1	15.316	58.461	91.635	N.pl3	17	HIS115	0.000	
161	 CE1	14.613	58.245	92.733	C.2	17	HIS115	0.000	
162	 NE2	14.878	59.207	93.596	N.pl3	17	HIS115	0.000	
163	   N	21.864	59.490	87.585	N.am	18	TRP117	0.000	
164	  CA	22.071	58.446	86.590	C.3	18	TRP117	0.000	
165	   C	23.398	58.611	85.868	C.2	18	TRP117	0.000	
166	   O	23.886	59.728	85.687	O.2	18	TRP117	0.000	
167	  CB	20.983	58.499	85.530	C.3	18	TRP117	0.000	
168	  CG	19.604	58.192	86.002	C.2	18	TRP117	0.000	
169	 CD1	18.723	59.066	86.542	C.2	18	TRP117	0.000	
170	 CD2	18.916	56.939	85.882	C.2	18	TRP117	0.000	
171	 CE2	17.629	57.120	86.408	C.2	18	TRP117	0.000	
172	 CE3	19.276	55.673	85.400	C.2	18	TRP117	0.000	
173	 NE1	17.532	58.428	86.807	N.pl3	18	TRP117	0.000	
174	 CZ2	16.701	56.092	86.468	C.2	18	TRP117	0.000	
175	 CZ3	18.347	54.654	85.445	C.2	18	TRP117	0.000	
176	 CH2	17.073	54.868	85.980	C.2	18	TRP117	0.000	
@<TRIPOS>BOND
1 1 2 1
2 2 3 1
3 2 5 1
4 3 4 2
5 5 6 1
6 6 7 1
7 6 8 2
8 9 10 1
9 10 11 1
10 10 13 1
11 11 12 2
12 13 14 1
13 14 15 1
14 15 16 1
15 16 17 1
16 17 18 2
17 17 19 1
18 20 21 1
19 21 22 1
20 21 24 1
21 22 23 2
22 24 25 1
23 25 26 2
24 25 27 1
25 26 28 1
26 27 29 2
27 28 30 2
28 29 30 1
29 31 32 1
30 31 37 1
31 32 33 1
32 32 35 1
33 33 34 2
34 35 36 1
35 36 37 1
36 38 39 1
37 39 40 1
38 39 42 1
39 40 41 2
40 42 43 1
41 43 44 2
42 43 45 1
43 44 48 1
44 45 46 2
45 45 47 1
46 46 49 1
47 47 50 2
48 46 48 1
49 49 51 2
50 50 51 1
51 52 53 1
52 53 54 1
53 53 56 1
54 54 55 2
55 56 57 1
56 57 58 2
57 57 59 1
58 58 60 1
59 59 61 2
60 60 62 2
61 61 62 1
62 63 64 1
63 64 65 1
64 64 67 1
65 65 66 2
66 67 68 1
67 68 69 1
68 69 70 1
69 69 71 2
70 72 73 1
71 73 74 1
72 73 76 1
73 74 75 2
74 74 84 1
75 76 77 1
76 77 78 2
77 77 79 1
78 78 80 1
79 79 81 2
80 80 82 2
81 81 82 1
82 82 83 1
83 84 85 1
84 84 90 1
85 85 86 1
86 85 88 1
87 86 87 2
88 86 91 1
89 88 89 1
90 89 90 1
91 91 92 1
92 92 93 1
93 92 95 1
94 93 94 2
95 93 98 1
96 95 96 1
97 95 97 1
98 98 99 1
99 99 100 1
100 99 102 1
101 100 101 2
102 102 103 1
103 103 104 1
104 103 105 1
105 106 107 1
106 107 108 1
107 107 110 1
108 108 109 2
109 110 111 1
110 111 112 1
111 112 113 1
112 113 114 1
113 114 115 2
114 114 116 1
115 117 118 1
116 118 119 1
117 118 121 1
118 119 120 2
119 119 125 1
120 121 122 1
121 121 123 1
122 122 124 1
123 125 126 1
124 126 127 1
125 126 129 1
126 127 128 2
127 127 135 1
128 129 130 1
129 130 131 2
130 130 132 1
131 131 134 1
132 132 133 2
133 133 134 1
134 135 136 1
135 136 137 1
136 136 139 1
137 137 138 2
138 137 141 1
139 139 140 1
140 141 142 1
141 142 143 1
142 142 145 1
143 143 144 2
144 145 146 1
145 146 147 2
146 146 148 1
147 147 149 1
148 148 150 2
149 149 151 2
150 150 151 1
151 151 152 1
152 153 154 1
153 154 155 1
154 154 157 1
155 155 156 2
156 157 158 1
157 158 159 2
158 158 160 1
159 159 162 1
160 160 161 2
161 161 162 1
162 163 164 1
163 164 165 1
164 164 167 1
165 165 166 2
166 167 168 1
167 168 169 2
168 168 170 1
169 169 173 1
170 170 171 2
171 170 172 1
172 171 174 1
173 172 175 2
174 171 173 1
175 174 176 2
176 175 176 1
@<TRIPOS>SUBSTRUCTURE
1	ASN67	1	RESIDUE	1 A	ASN
2	ARG69	9	RESIDUE	1 A	ARG
3	PHE76	20	RESIDUE	1 A	PHE
4	PRO86	31	RESIDUE	1 A	PRO
5	TRP88	38	RESIDUE	1 A	TRP
6	PHE91	52	RESIDUE	1 A	PHE
7	GLN96	63	RESIDUE	1 A	GLN
8	TYR98	72	RESIDUE	1 A	TYR
9	PRO99	84	RESIDUE	1 A	PRO
10	THR100	91	RESIDUE	1 A	THR
11	LEU101	98	RESIDUE	1 A	LEU
12	ARG107	106	RESIDUE	1 A	ARG
13	ILE109	117	RESIDUE	1 A	ILE
14	HIS110	125	RESIDUE	1 A	HIS
15	SER111	135	RESIDUE	1 A	SER
16	TYR112	141	RESIDUE	1 A	TYR
17	HIS115	153	RESIDUE	1 A	HIS
18	TRP117	163	RESIDUE	1 A	TRP
