# created with PyMOL 2.5.2
@<TRIPOS>MOLECULE
EGFR_4W9F_E3ligase
157 159 16              
SMALL
USER_CHARGES
@<TRIPOS>ATOM
1	   N	-11.694	31.573	12.882	N.am	1	PHE76	0.000	
2	  CA	-11.223	30.220	13.108	C.3	1	PHE76	0.000	
3	   C	-11.054	30.133	14.601	C.2	1	PHE76	0.000	
4	   O	-10.230	30.851	15.161	O.2	1	PHE76	0.000	
5	  CB	-9.867	29.959	12.428	C.3	1	PHE76	0.000	
6	  CG	-9.912	29.902	10.916	C.2	1	PHE76	0.000	
7	 CD1	-11.111	29.777	10.214	C.2	1	PHE76	0.000	
8	 CD2	-8.724	29.917	10.195	C.2	1	PHE76	0.000	
9	 CE1	-11.116	29.705	8.833	C.2	1	PHE76	0.000	
10	 CE2	-8.728	29.850	8.816	C.2	1	PHE76	0.000	
11	  CZ	-9.927	29.737	8.135	C.2	1	PHE76	0.000	
12	   N	-4.870	25.086	9.270	N.am	2	PRO86	0.000	
13	  CA	-5.930	25.340	8.311	C.3	2	PRO86	0.000	
14	   C	-5.404	25.108	6.898	C.2	2	PRO86	0.000	
15	   O	-4.266	25.474	6.589	O.2	2	PRO86	0.000	
16	  CB	-6.278	26.817	8.540	C.3	2	PRO86	0.000	
17	  CG	-5.499	27.254	9.735	C.3	2	PRO86	0.000	
18	  CD	-4.319	26.340	9.796	C.3	2	PRO86	0.000	
19	   N	-6.571	25.615	2.869	N.am	3	TRP88	0.000	
20	  CA	-7.477	26.166	1.884	C.3	3	TRP88	0.000	
21	   C	-7.329	25.359	0.609	C.2	3	TRP88	0.000	
22	   O	-6.209	25.101	0.164	O.2	3	TRP88	0.000	
23	  CB	-7.110	27.616	1.617	C.3	3	TRP88	0.000	
24	  CG	-7.893	28.251	0.531	C.2	3	TRP88	0.000	
25	 CD1	-9.241	28.403	0.481	C.2	3	TRP88	0.000	
26	 CD2	-7.371	28.851	-0.654	C.2	3	TRP88	0.000	
27	 CE2	-8.469	29.341	-1.387	C.2	3	TRP88	0.000	
28	 CE3	-6.078	29.017	-1.174	C.2	3	TRP88	0.000	
29	 NE1	-9.598	29.063	-0.664	N.pl3	3	TRP88	0.000	
30	 CZ2	-8.321	29.986	-2.618	C.2	3	TRP88	0.000	
31	 CZ3	-5.928	29.659	-2.399	C.2	3	TRP88	0.000	
32	 CH2	-7.043	30.139	-3.106	C.2	3	TRP88	0.000	
33	   N	-8.062	27.287	-6.286	N.am	4	PHE91	0.000	
34	  CA	-8.969	27.239	-7.433	C.3	4	PHE91	0.000	
35	   C	-8.745	26.044	-8.371	C.2	4	PHE91	0.000	
36	   O	-9.634	25.699	-9.150	O.2	4	PHE91	0.000	
37	  CB	-8.902	28.555	-8.199	C.3	4	PHE91	0.000	
38	  CG	-9.199	29.747	-7.347	C.2	4	PHE91	0.000	
39	 CD1	-10.387	29.817	-6.630	C.2	4	PHE91	0.000	
40	 CD2	-8.296	30.791	-7.250	C.2	4	PHE91	0.000	
41	 CE1	-10.670	30.911	-5.836	C.2	4	PHE91	0.000	
42	 CE2	-8.575	31.888	-6.463	C.2	4	PHE91	0.000	
43	  CZ	-9.759	31.946	-5.748	C.2	4	PHE91	0.000	
44	   N	-3.599	24.354	0.081	N.am	5	GLN96	0.000	
45	  CA	-2.638	25.348	0.526	C.3	5	GLN96	0.000	
46	   C	-2.670	25.443	2.051	C.2	5	GLN96	0.000	
47	   O	-3.687	25.822	2.630	O.2	5	GLN96	0.000	
48	  CB	-2.944	26.708	-0.076	C.3	5	GLN96	0.000	
49	  CG	-1.953	27.801	0.352	C.3	5	GLN96	0.000	
50	  CD	-2.217	29.148	-0.308	C.2	5	GLN96	0.000	
51	 NE2	-2.047	30.219	0.449	N.pl3	5	GLN96	0.000	
52	 OE1	-2.568	29.221	-1.493	O.2	5	GLN96	0.000	
53	   N	-1.942	27.078	5.687	N.am	6	TYR98	0.000	
54	  CA	-1.986	28.444	6.224	C.3	6	TYR98	0.000	
55	   C	-1.349	28.432	7.614	C.2	6	TYR98	0.000	
56	   O	-1.035	27.355	8.120	O.2	6	TYR98	0.000	
57	  CB	-3.432	28.938	6.270	C.3	6	TYR98	0.000	
58	  CG	-3.817	29.676	5.009	C.2	6	TYR98	0.000	
59	 CD1	-4.115	28.985	3.837	C.2	6	TYR98	0.000	
60	 CD2	-3.854	31.060	4.977	C.2	6	TYR98	0.000	
61	 CE1	-4.444	29.658	2.676	C.2	6	TYR98	0.000	
62	 CE2	-4.186	31.738	3.820	C.2	6	TYR98	0.000	
63	  CZ	-4.480	31.029	2.676	C.2	6	TYR98	0.000	
64	  OH	-4.803	31.694	1.524	O.3	6	TYR98	0.000	
65	   N	-1.129	29.616	8.231	N.am	7	PRO99	0.000	
66	  CA	-0.480	29.599	9.553	C.3	7	PRO99	0.000	
67	   C	-1.288	28.842	10.625	C.2	7	PRO99	0.000	
68	   O	-2.509	28.853	10.602	O.2	7	PRO99	0.000	
69	  CB	-0.343	31.090	9.906	C.3	7	PRO99	0.000	
70	  CG	-0.364	31.810	8.583	C.3	7	PRO99	0.000	
71	  CD	-1.287	30.988	7.713	C.3	7	PRO99	0.000	
72	   N	-0.591	28.194	11.548	N.am	8	THR100	0.000	
73	  CA	-1.222	27.318	12.522	C.3	8	THR100	0.000	
74	   C	-1.884	28.080	13.676	C.2	8	THR100	0.000	
75	   O	-1.534	29.227	13.958	O.2	8	THR100	0.000	
76	  CB	-0.199	26.351	13.121	C.3	8	THR100	0.000	
77	 CG2	0.339	25.415	12.058	C.3	8	THR100	0.000	
78	 OG1	0.881	27.104	13.678	O.3	8	THR100	0.000	
79	   N	-2.846	27.428	14.332	N.am	9	LEU101	0.000	
80	  CA	-3.498	27.968	15.533	C.3	9	LEU101	0.000	
81	   C	-3.146	27.120	16.749	C.2	9	LEU101	0.000	
82	   O	-3.405	25.909	16.740	O.2	9	LEU101	0.000	
83	  CB	-5.016	27.949	15.381	C.3	9	LEU101	0.000	
84	  CG	-5.661	28.955	14.435	C.3	9	LEU101	0.000	
85	 CD1	-5.935	28.315	13.088	C.3	9	LEU101	0.000	
86	 CD2	-6.949	29.488	15.038	C.3	9	LEU101	0.000	
87	   N	-8.507	33.241	15.517	N.am	10	ARG107	0.000	
88	  CA	-7.977	34.206	14.562	C.3	10	ARG107	0.000	
89	   C	-9.141	34.682	13.725	C.2	10	ARG107	0.000	
90	   O	-9.929	33.867	13.224	O.2	10	ARG107	0.000	
91	  CB	-6.950	33.560	13.626	C.3	10	ARG107	0.000	
92	  CG	-5.748	32.905	14.292	C.3	10	ARG107	0.000	
93	  CD	-4.574	33.847	14.411	C.3	10	ARG107	0.000	
94	  NE	-3.411	33.205	15.009	N.pl3	10	ARG107	0.000	
95	  CZ	-3.264	32.973	16.310	C.cat	10	ARG107	0.000	
96	 NH1	-4.220	33.313	17.173	N.pl3	10	ARG107	0.000	
97	 NH2	-2.158	32.390	16.757	N.pl3	10	ARG107	0.000	
98	   N	-10.028	36.103	10.275	N.am	11	ILE109	0.000	
99	  CA	-9.343	36.039	8.987	C.3	11	ILE109	0.000	
100	   C	-10.253	36.434	7.847	C.2	11	ILE109	0.000	
101	   O	-11.475	36.377	7.960	O.2	11	ILE109	0.000	
102	  CB	-8.734	34.647	8.720	C.3	11	ILE109	0.000	
103	 CG1	-9.816	33.564	8.582	C.3	11	ILE109	0.000	
104	 CG2	-7.758	34.271	9.825	C.3	11	ILE109	0.000	
105	 CD1	-10.357	33.401	7.176	C.3	11	ILE109	0.000	
106	   N	-9.626	36.848	6.752	N.am	12	HIS110	0.000	
107	  CA	-10.331	37.271	5.552	C.3	12	HIS110	0.000	
108	   C	-10.321	36.123	4.565	C.2	12	HIS110	0.000	
109	   O	-9.256	35.672	4.140	O.2	12	HIS110	0.000	
110	  CB	-9.651	38.491	4.932	C.3	12	HIS110	0.000	
111	  CG	-9.811	39.740	5.737	C.2	12	HIS110	0.000	
112	 CD2	-10.587	40.833	5.544	C.2	12	HIS110	0.000	
113	 ND1	-9.111	39.968	6.904	N.pl3	12	HIS110	0.000	
114	 CE1	-9.453	41.145	7.397	C.2	12	HIS110	0.000	
115	 NE2	-10.346	41.690	6.590	N.pl3	12	HIS110	0.000	
116	   N	-11.515	35.642	4.229	N.am	13	SER111	0.000	
117	  CA	-11.688	34.630	3.205	C.3	13	SER111	0.000	
118	   C	-12.782	35.133	2.278	C.2	13	SER111	0.000	
119	   O	-13.046	36.339	2.242	O.2	13	SER111	0.000	
120	  CB	-12.032	33.275	3.831	C.3	13	SER111	0.000	
121	  OG	-11.945	32.227	2.866	O.3	13	SER111	0.000	
122	   N	-13.396	34.229	1.520	N.am	14	TYR112	0.000	
123	  CA	-14.367	34.595	0.488	C.3	14	TYR112	0.000	
124	   C	-15.494	33.580	0.417	C.2	14	TYR112	0.000	
125	   O	-15.332	32.417	0.802	O.2	14	TYR112	0.000	
126	  CB	-13.692	34.674	-0.890	C.3	14	TYR112	0.000	
127	  CG	-12.644	35.748	-0.991	C.2	14	TYR112	0.000	
128	 CD1	-11.343	35.521	-0.546	C.2	14	TYR112	0.000	
129	 CD2	-12.952	36.993	-1.511	C.2	14	TYR112	0.000	
130	 CE1	-10.380	36.509	-0.616	C.2	14	TYR112	0.000	
131	 CE2	-11.997	37.990	-1.588	C.2	14	TYR112	0.000	
132	  CZ	-10.714	37.744	-1.139	C.2	14	TYR112	0.000	
133	  OH	-9.766	38.734	-1.209	O.3	14	TYR112	0.000	
134	   N	-15.338	29.635	-0.801	N.am	15	HIS115	0.000	
135	  CA	-13.999	29.068	-0.626	C.3	15	HIS115	0.000	
136	   C	-14.067	27.873	0.311	C.2	15	HIS115	0.000	
137	   O	-14.899	27.832	1.209	O.2	15	HIS115	0.000	
138	  CB	-13.023	30.119	-0.121	C.3	15	HIS115	0.000	
139	  CG	-12.555	31.051	-1.186	C.2	15	HIS115	0.000	
140	 CD2	-13.112	31.403	-2.369	C.2	15	HIS115	0.000	
141	 ND1	-11.364	31.735	-1.105	N.pl3	15	HIS115	0.000	
142	 CE1	-11.209	32.478	-2.189	C.2	15	HIS115	0.000	
143	 NE2	-12.260	32.296	-2.970	N.pl3	15	HIS115	0.000	
144	   N	-12.358	25.187	3.017	N.am	16	TRP117	0.000	
145	  CA	-11.342	24.946	4.042	C.3	16	TRP117	0.000	
146	   C	-11.508	23.598	4.720	C.2	16	TRP117	0.000	
147	   O	-12.620	23.079	4.837	O.2	16	TRP117	0.000	
148	  CB	-11.465	25.996	5.132	C.3	16	TRP117	0.000	
149	  CG	-11.144	27.387	4.700	C.2	16	TRP117	0.000	
150	 CD1	-12.000	28.293	4.159	C.2	16	TRP117	0.000	
151	 CD2	-9.884	28.046	4.832	C.2	16	TRP117	0.000	
152	 CE2	-10.038	29.350	4.327	C.2	16	TRP117	0.000	
153	 CE3	-8.627	27.650	5.313	C.2	16	TRP117	0.000	
154	 NE1	-11.341	29.487	3.929	N.pl3	16	TRP117	0.000	
155	 CZ2	-8.994	30.260	4.301	C.2	16	TRP117	0.000	
156	 CZ3	-7.593	28.545	5.272	C.2	16	TRP117	0.000	
157	 CH2	-7.777	29.843	4.780	C.2	16	TRP117	0.000	
@<TRIPOS>BOND
1 1 2 1
2 2 3 1
3 2 5 1
4 3 4 2
5 5 6 1
6 6 7 2
7 6 8 1
8 7 9 1
9 8 10 2
10 9 11 2
11 10 11 1
12 12 13 1
13 12 18 1
14 13 14 1
15 13 16 1
16 14 15 2
17 16 17 1
18 17 18 1
19 19 20 1
20 20 21 1
21 20 23 1
22 21 22 2
23 23 24 1
24 24 25 2
25 24 26 1
26 25 29 1
27 26 27 2
28 26 28 1
29 27 30 1
30 28 31 2
31 27 29 1
32 30 32 2
33 31 32 1
34 33 34 1
35 34 35 1
36 34 37 1
37 35 36 2
38 37 38 1
39 38 39 2
40 38 40 1
41 39 41 1
42 40 42 2
43 41 43 2
44 42 43 1
45 44 45 1
46 45 46 1
47 45 48 1
48 46 47 2
49 48 49 1
50 49 50 1
51 50 51 1
52 50 52 2
53 53 54 1
54 54 55 1
55 54 57 1
56 55 56 2
57 55 65 1
58 57 58 1
59 58 59 2
60 58 60 1
61 59 61 1
62 60 62 2
63 61 63 2
64 62 63 1
65 63 64 1
66 65 66 1
67 65 71 1
68 66 67 1
69 66 69 1
70 67 68 2
71 67 72 1
72 69 70 1
73 70 71 1
74 72 73 1
75 73 74 1
76 73 76 1
77 74 75 2
78 74 79 1
79 76 77 1
80 76 78 1
81 79 80 1
82 80 81 1
83 80 83 1
84 81 82 2
85 83 84 1
86 84 85 1
87 84 86 1
88 87 88 1
89 88 89 1
90 88 91 1
91 89 90 2
92 91 92 1
93 92 93 1
94 93 94 1
95 94 95 1
96 95 96 2
97 95 97 1
98 98 99 1
99 99 100 1
100 99 102 1
101 100 101 2
102 100 106 1
103 102 103 1
104 102 104 1
105 103 105 1
106 106 107 1
107 107 108 1
108 107 110 1
109 108 109 2
110 108 116 1
111 110 111 1
112 111 112 2
113 111 113 1
114 112 115 1
115 113 114 2
116 114 115 1
117 116 117 1
118 117 118 1
119 117 120 1
120 118 119 2
121 118 122 1
122 120 121 1
123 122 123 1
124 123 124 1
125 123 126 1
126 124 125 2
127 126 127 1
128 127 128 2
129 127 129 1
130 128 130 1
131 129 131 2
132 130 132 2
133 131 132 1
134 132 133 1
135 134 135 1
136 135 136 1
137 135 138 1
138 136 137 2
139 138 139 1
140 139 140 2
141 139 141 1
142 140 143 1
143 141 142 2
144 142 143 1
145 144 145 1
146 145 146 1
147 145 148 1
148 146 147 2
149 148 149 1
150 149 150 2
151 149 151 1
152 150 154 1
153 151 152 2
154 151 153 1
155 152 155 1
156 153 156 2
157 152 154 1
158 155 157 2
159 156 157 1
@<TRIPOS>SUBSTRUCTURE
1	PHE76	1	RESIDUE	1 A	PHE
2	PRO86	12	RESIDUE	1 A	PRO
3	TRP88	19	RESIDUE	1 A	TRP
4	PHE91	33	RESIDUE	1 A	PHE
5	GLN96	44	RESIDUE	1 A	GLN
6	TYR98	53	RESIDUE	1 A	TYR
7	PRO99	65	RESIDUE	1 A	PRO
8	THR100	72	RESIDUE	1 A	THR
9	LEU101	79	RESIDUE	1 A	LEU
10	ARG107	87	RESIDUE	1 A	ARG
11	ILE109	98	RESIDUE	1 A	ILE
12	HIS110	106	RESIDUE	1 A	HIS
13	SER111	116	RESIDUE	1 A	SER
14	TYR112	122	RESIDUE	1 A	TYR
15	HIS115	134	RESIDUE	1 A	HIS
16	TRP117	144	RESIDUE	1 A	TRP
