# created with PyMOL 2.5.2
@<TRIPOS>MOLECULE
BRD4_5NVV_E3ligase
176 176 18              
SMALL
USER_CHARGES
@<TRIPOS>ATOM
1	   N	16.298	60.769	98.525	N.am	1	ASN67	0.000	
2	  CA	14.992	60.119	98.584	C.3	1	ASN67	0.000	
3	   C	13.861	61.158	98.647	C.2	1	ASN67	0.000	
4	   O	13.250	61.381	99.694	O.2	1	ASN67	0.000	
5	  CB	14.938	59.169	99.778	C.3	1	ASN67	0.000	
6	  CG	13.701	58.292	99.781	C.2	1	ASN67	0.000	
7	 ND2	13.525	57.546	100.853	N.pl3	1	ASN67	0.000	
8	 OD1	12.914	58.283	98.836	O.2	1	ASN67	0.000	
9	   N	10.991	61.345	96.638	N.am	2	ARG69	0.000	
10	  CA	9.663	60.853	96.292	C.3	2	ARG69	0.000	
11	   C	8.880	61.761	95.344	C.2	2	ARG69	0.000	
12	   O	7.667	61.641	95.261	O.2	2	ARG69	0.000	
13	  CB	8.829	60.603	97.554	C.3	2	ARG69	0.000	
14	  CG	9.490	59.675	98.550	C.3	2	ARG69	0.000	
15	  CD	8.941	59.890	99.943	C.3	2	ARG69	0.000	
16	  NE	9.659	59.070	100.910	N.pl3	2	ARG69	0.000	
17	  CZ	9.209	57.928	101.422	C.cat	2	ARG69	0.000	
18	 NH1	8.021	57.437	101.080	N.pl3	2	ARG69	0.000	
19	 NH2	9.951	57.269	102.296	N.pl3	2	ARG69	0.000	
20	   N	15.410	58.203	78.346	N.am	3	PHE76	0.000	
21	  CA	16.769	57.724	78.122	C.3	3	PHE76	0.000	
22	   C	16.876	57.560	76.608	C.2	3	PHE76	0.000	
23	   O	16.152	56.748	76.040	O.2	3	PHE76	0.000	
24	  CB	17.034	56.378	78.815	C.3	3	PHE76	0.000	
25	  CG	17.131	56.439	80.322	C.2	3	PHE76	0.000	
26	 CD1	17.211	57.648	81.016	C.2	3	PHE76	0.000	
27	 CD2	17.197	55.258	81.052	C.2	3	PHE76	0.000	
28	 CE1	17.332	57.671	82.395	C.2	3	PHE76	0.000	
29	 CE2	17.324	55.273	82.429	C.2	3	PHE76	0.000	
30	  CZ	17.387	56.483	83.107	C.2	3	PHE76	0.000	
31	   N	21.955	51.455	81.991	N.am	4	PRO86	0.000	
32	  CA	21.749	52.544	82.918	C.3	4	PRO86	0.000	
33	   C	21.987	52.059	84.343	C.2	4	PRO86	0.000	
34	   O	21.624	50.940	84.675	O.2	4	PRO86	0.000	
35	  CB	20.287	52.942	82.694	C.3	4	PRO86	0.000	
36	  CG	19.814	52.172	81.516	C.3	4	PRO86	0.000	
37	  CD	20.680	50.953	81.466	C.3	4	PRO86	0.000	
38	   N	21.473	53.287	88.343	N.am	5	TRP88	0.000	
39	  CA	20.910	54.161	89.363	C.3	5	TRP88	0.000	
40	   C	21.727	54.002	90.635	C.2	5	TRP88	0.000	
41	   O	21.988	52.886	91.062	O.2	5	TRP88	0.000	
42	  CB	19.457	53.759	89.651	C.3	5	TRP88	0.000	
43	  CG	18.817	54.548	90.753	C.2	5	TRP88	0.000	
44	 CD1	18.688	55.914	90.822	C.2	5	TRP88	0.000	
45	 CD2	18.205	54.031	91.933	C.2	5	TRP88	0.000	
46	 CE2	17.723	55.136	92.670	C.2	5	TRP88	0.000	
47	 CE3	18.012	52.740	92.443	C.2	5	TRP88	0.000	
48	 NE1	18.030	56.270	91.964	N.pl3	5	TRP88	0.000	
49	 CZ2	17.084	54.990	93.889	C.2	5	TRP88	0.000	
50	 CZ3	17.378	52.596	93.655	C.2	5	TRP88	0.000	
51	 CH2	16.923	53.715	94.372	C.2	5	TRP88	0.000	
52	   N	19.926	54.769	97.531	N.am	6	PHE91	0.000	
53	  CA	19.999	55.692	98.661	C.3	6	PHE91	0.000	
54	   C	21.209	55.436	99.576	C.2	6	PHE91	0.000	
55	   O	21.594	56.304	100.360	O.2	6	PHE91	0.000	
56	  CB	18.683	55.637	99.439	C.3	6	PHE91	0.000	
57	  CG	17.469	55.863	98.574	C.2	6	PHE91	0.000	
58	 CD1	17.373	57.001	97.783	C.2	6	PHE91	0.000	
59	 CD2	16.432	54.934	98.540	C.2	6	PHE91	0.000	
60	 CE1	16.269	57.224	96.987	C.2	6	PHE91	0.000	
61	 CE2	15.321	55.151	97.745	C.2	6	PHE91	0.000	
62	  CZ	15.251	56.297	96.956	C.2	6	PHE91	0.000	
63	   N	22.739	50.292	91.185	N.am	7	GLN96	0.000	
64	  CA	21.736	49.329	90.750	C.3	7	GLN96	0.000	
65	   C	21.625	49.371	89.228	C.2	7	GLN96	0.000	
66	   O	21.283	50.405	88.654	O.2	7	GLN96	0.000	
67	  CB	20.378	49.637	91.358	C.3	7	GLN96	0.000	
68	  CG	19.278	48.683	90.878	C.3	7	GLN96	0.000	
69	  CD	17.955	48.879	91.603	C.2	7	GLN96	0.000	
70	 NE2	16.862	48.494	90.956	N.pl3	7	GLN96	0.000	
71	 OE1	17.918	49.359	92.735	O.2	7	GLN96	0.000	
72	   N	19.988	48.702	85.588	N.am	8	TYR98	0.000	
73	  CA	18.626	48.713	85.047	C.3	8	TYR98	0.000	
74	   C	18.656	48.078	83.662	C.2	8	TYR98	0.000	
75	   O	19.741	47.844	83.135	O.2	8	TYR98	0.000	
76	  CB	18.094	50.149	85.002	C.3	8	TYR98	0.000	
77	  CG	17.354	50.518	86.267	C.2	8	TYR98	0.000	
78	 CD1	18.038	50.708	87.463	C.2	8	TYR98	0.000	
79	 CD2	15.966	50.637	86.282	C.2	8	TYR98	0.000	
80	 CE1	17.362	51.034	88.636	C.2	8	TYR98	0.000	
81	 CE2	15.283	50.972	87.452	C.2	8	TYR98	0.000	
82	  CZ	15.988	51.155	88.633	C.2	8	TYR98	0.000	
83	  OH	15.337	51.475	89.815	O.3	8	TYR98	0.000	
84	   N	17.482	47.771	83.073	N.am	9	PRO99	0.000	
85	  CA	17.487	47.102	81.772	C.3	9	PRO99	0.000	
86	   C	18.254	47.894	80.712	C.2	9	PRO99	0.000	
87	   O	18.337	49.121	80.788	O.2	9	PRO99	0.000	
88	  CB	15.990	47.007	81.419	C.3	9	PRO99	0.000	
89	  CG	15.306	46.981	82.744	C.3	9	PRO99	0.000	
90	  CD	16.109	47.940	83.585	C.3	9	PRO99	0.000	
91	   N	18.818	47.189	79.744	N.am	10	THR100	0.000	
92	  CA	19.727	47.805	78.777	C.3	10	THR100	0.000	
93	   C	18.963	48.467	77.634	C.2	10	THR100	0.000	
94	   O	17.796	48.158	77.412	O.2	10	THR100	0.000	
95	  CB	20.682	46.758	78.197	C.3	10	THR100	0.000	
96	 CG2	21.679	46.295	79.255	C.3	10	THR100	0.000	
97	 OG1	19.916	45.633	77.770	O.3	10	THR100	0.000	
98	   N	19.625	49.384	76.930	N.am	11	LEU101	0.000	
99	  CA	19.081	49.999	75.703	C.3	11	LEU101	0.000	
100	   C	19.949	49.638	74.509	C.2	11	LEU101	0.000	
101	   O	21.158	49.893	74.527	O.2	11	LEU101	0.000	
102	  CB	19.051	51.521	75.812	C.3	11	LEU101	0.000	
103	  CG	18.050	52.106	76.801	C.3	11	LEU101	0.000	
104	 CD1	18.718	52.335	78.146	C.3	11	LEU101	0.000	
105	 CD2	17.462	53.404	76.274	C.3	11	LEU101	0.000	
106	   N	13.891	54.956	75.763	N.am	12	ARG107	0.000	
107	  CA	12.898	54.459	76.708	C.3	12	ARG107	0.000	
108	   C	12.373	55.613	77.536	C.2	12	ARG107	0.000	
109	   O	13.147	56.439	78.024	O.2	12	ARG107	0.000	
110	  CB	13.514	53.420	77.646	C.3	12	ARG107	0.000	
111	  CG	14.085	52.188	76.963	C.3	12	ARG107	0.000	
112	  CD	13.033	51.133	76.729	C.3	12	ARG107	0.000	
113	  NE	13.598	49.935	76.110	N.pl3	12	ARG107	0.000	
114	  CZ	13.946	49.823	74.823	C.cat	12	ARG107	0.000	
115	 NH1	13.814	50.843	73.982	N.pl3	12	ARG107	0.000	
116	 NH2	14.442	48.678	74.368	N.pl3	12	ARG107	0.000	
117	   N	10.984	56.519	80.972	N.am	13	ILE109	0.000	
118	  CA	11.073	55.863	82.275	C.3	13	ILE109	0.000	
119	   C	10.677	56.807	83.370	C.2	13	ILE109	0.000	
120	   O	10.745	58.018	83.211	O.2	13	ILE109	0.000	
121	  CB	12.481	55.283	82.539	C.3	13	ILE109	0.000	
122	 CG1	13.538	56.385	82.693	C.3	13	ILE109	0.000	
123	 CG2	12.885	54.333	81.416	C.3	13	ILE109	0.000	
124	 CD1	13.772	56.849	84.118	C.3	13	ILE109	0.000	
125	   N	10.252	56.229	84.487	N.am	14	HIE110	0.000	
126	  CA	9.825	56.995	85.650	C.3	14	HIE110	0.000	
127	   C	10.940	56.996	86.682	C.2	14	HIE110	0.000	
128	   O	11.340	55.946	87.179	O.2	14	HIE110	0.000	
129	  CB	8.549	56.395	86.225	C.3	14	HIE110	0.000	
130	  CG	7.393	56.474	85.287	C.2	14	HIE110	0.000	
131	 CD2	6.772	55.526	84.550	C.2	14	HIE110	0.000	
132	 ND1	6.759	57.661	84.998	N.2	14	HIE110	0.000	
133	 CE1	5.788	57.440	84.131	C.2	14	HIE110	0.000	
134	 NE2	5.773	56.151	83.846	N.pl3	14	HIE110	0.000	
135	   N	11.452	58.180	86.980	N.am	15	SER111	0.000	
136	  CA	12.497	58.339	87.989	C.3	15	SER111	0.000	
137	   C	12.022	59.388	88.969	C.2	15	SER111	0.000	
138	   O	10.827	59.645	89.048	O.2	15	SER111	0.000	
139	  CB	13.823	58.739	87.338	C.3	15	SER111	0.000	
140	  OG	14.874	58.717	88.286	O.3	15	SER111	0.000	
141	   N	12.944	59.987	89.720	N.am	16	TYR112	0.000	
142	  CA	12.586	60.956	90.756	C.3	16	TYR112	0.000	
143	   C	13.574	62.103	90.821	C.2	16	TYR112	0.000	
144	   O	14.762	61.942	90.503	O.2	16	TYR112	0.000	
145	  CB	12.489	60.260	92.117	C.3	16	TYR112	0.000	
146	  CG	11.345	59.281	92.163	C.2	16	TYR112	0.000	
147	 CD1	11.486	57.994	91.655	C.2	16	TYR112	0.000	
148	 CD2	10.110	59.658	92.669	C.2	16	TYR112	0.000	
149	 CE1	10.422	57.105	91.655	C.2	16	TYR112	0.000	
150	 CE2	9.039	58.781	92.672	C.2	16	TYR112	0.000	
151	  CZ	9.201	57.507	92.170	C.2	16	TYR112	0.000	
152	  OH	8.140	56.640	92.188	O.3	16	TYR112	0.000	
153	   N	17.549	62.064	91.963	N.am	17	HIS115	0.000	
154	  CA	18.133	60.742	91.793	C.3	17	HIS115	0.000	
155	   C	19.334	60.821	90.865	C.2	17	HIS115	0.000	
156	   O	19.382	61.660	89.969	O.2	17	HIS115	0.000	
157	  CB	17.093	59.762	91.271	C.3	17	HIS115	0.000	
158	  CG	16.156	59.284	92.325	C.2	17	HIS115	0.000	
159	 CD2	15.775	59.845	93.498	C.2	17	HIS115	0.000	
160	 ND1	15.526	58.062	92.262	N.pl3	17	HIS115	0.000	
161	 CE1	14.778	57.902	93.338	C.2	17	HIS115	0.000	
162	 NE2	14.915	58.968	94.105	N.pl3	17	HIS115	0.000	
163	   N	22.062	59.024	88.162	N.am	18	TRP117	0.000	
164	  CA	22.216	58.011	87.136	C.3	18	TRP117	0.000	
165	   C	23.557	58.179	86.424	C.2	18	TRP117	0.000	
166	   O	24.050	59.290	86.265	O.2	18	TRP117	0.000	
167	  CB	21.134	58.170	86.082	C.3	18	TRP117	0.000	
168	  CG	19.755	57.868	86.521	C.2	18	TRP117	0.000	
169	 CD1	18.860	58.741	87.042	C.2	18	TRP117	0.000	
170	 CD2	19.081	56.610	86.413	C.2	18	TRP117	0.000	
171	 CE2	17.771	56.795	86.891	C.2	18	TRP117	0.000	
172	 CE3	19.455	55.344	85.947	C.2	18	TRP117	0.000	
173	 NE1	17.659	58.106	87.275	N.pl3	18	TRP117	0.000	
174	 CZ2	16.845	55.757	86.953	C.2	18	TRP117	0.000	
175	 CZ3	18.517	54.310	85.983	C.2	18	TRP117	0.000	
176	 CH2	17.231	54.527	86.484	C.2	18	TRP117	0.000	
@<TRIPOS>BOND
1 1 2 1
2 2 3 1
3 2 5 1
4 3 4 2
5 5 6 1
6 6 7 1
7 6 8 2
8 9 10 1
9 10 11 1
10 10 13 1
11 11 12 2
12 13 14 1
13 14 15 1
14 15 16 1
15 16 17 1
16 17 18 2
17 17 19 1
18 20 21 1
19 21 22 1
20 21 24 1
21 22 23 2
22 24 25 1
23 25 26 2
24 25 27 1
25 26 28 1
26 27 29 2
27 28 30 2
28 29 30 1
29 31 32 1
30 31 37 1
31 32 33 1
32 32 35 1
33 33 34 2
34 35 36 1
35 36 37 1
36 38 39 1
37 39 40 1
38 39 42 1
39 40 41 2
40 42 43 1
41 43 44 2
42 43 45 1
43 44 48 1
44 45 46 2
45 45 47 1
46 46 49 1
47 47 50 2
48 46 48 1
49 49 51 2
50 50 51 1
51 52 53 1
52 53 54 1
53 53 56 1
54 54 55 2
55 56 57 1
56 57 58 2
57 57 59 1
58 58 60 1
59 59 61 2
60 60 62 2
61 61 62 1
62 63 64 1
63 64 65 1
64 64 67 1
65 65 66 2
66 67 68 1
67 68 69 1
68 69 70 1
69 69 71 2
70 72 73 1
71 73 74 1
72 73 76 1
73 74 75 2
74 74 84 1
75 76 77 1
76 77 78 2
77 77 79 1
78 78 80 1
79 79 81 2
80 80 82 2
81 81 82 1
82 82 83 1
83 84 85 1
84 84 90 1
85 85 86 1
86 85 88 1
87 86 87 2
88 86 91 1
89 88 89 1
90 89 90 1
91 91 92 1
92 92 93 1
93 92 95 1
94 93 94 2
95 93 98 1
96 95 96 1
97 95 97 1
98 98 99 1
99 99 100 1
100 99 102 1
101 100 101 2
102 102 103 1
103 103 104 1
104 103 105 1
105 106 107 1
106 107 108 1
107 107 110 1
108 108 109 2
109 110 111 1
110 111 112 1
111 112 113 1
112 113 114 1
113 114 115 2
114 114 116 1
115 117 118 1
116 118 119 1
117 118 121 1
118 119 120 2
119 119 125 1
120 121 122 1
121 121 123 1
122 122 124 1
123 125 126 1
124 126 127 1
125 126 129 1
126 127 128 2
127 127 135 1
128 129 130 1
129 130 131 2
130 130 132 1
131 131 134 1
132 132 133 2
133 133 134 1
134 135 136 1
135 136 137 1
136 136 139 1
137 137 138 2
138 137 141 1
139 139 140 1
140 141 142 1
141 142 143 1
142 142 145 1
143 143 144 2
144 145 146 1
145 146 147 2
146 146 148 1
147 147 149 1
148 148 150 2
149 149 151 2
150 150 151 1
151 151 152 1
152 153 154 1
153 154 155 1
154 154 157 1
155 155 156 2
156 157 158 1
157 158 159 2
158 158 160 1
159 159 162 1
160 160 161 2
161 161 162 1
162 163 164 1
163 164 165 1
164 164 167 1
165 165 166 2
166 167 168 1
167 168 169 2
168 168 170 1
169 169 173 1
170 170 171 2
171 170 172 1
172 171 174 1
173 172 175 2
174 171 173 1
175 174 176 2
176 175 176 1
@<TRIPOS>SUBSTRUCTURE
1	ASN67	1	RESIDUE	1 A	ASN
2	ARG69	9	RESIDUE	1 A	ARG
3	PHE76	20	RESIDUE	1 A	PHE
4	PRO86	31	RESIDUE	1 A	PRO
5	TRP88	38	RESIDUE	1 A	TRP
6	PHE91	52	RESIDUE	1 A	PHE
7	GLN96	63	RESIDUE	1 A	GLN
8	TYR98	72	RESIDUE	1 A	TYR
9	PRO99	84	RESIDUE	1 A	PRO
10	THR100	91	RESIDUE	1 A	THR
11	LEU101	98	RESIDUE	1 A	LEU
12	ARG107	106	RESIDUE	1 A	ARG
13	ILE109	117	RESIDUE	1 A	ILE
14	HIE110	125	RESIDUE	1 A	HIE
15	SER111	135	RESIDUE	1 A	SER
16	TYR112	141	RESIDUE	1 A	TYR
17	HIS115	153	RESIDUE	1 A	HIS
18	TRP117	163	RESIDUE	1 A	TRP
