# created with PyMOL 2.5.2
@<TRIPOS>MOLECULE
EGFR_5NVV_E3ligase
182 183 19              
SMALL
USER_CHARGES
@<TRIPOS>ATOM
1	   N	16.298	60.769	98.525	N.am	1	ASN67	0.000	
2	  CA	14.992	60.119	98.584	C.3	1	ASN67	0.000	
3	   C	13.861	61.158	98.647	C.2	1	ASN67	0.000	
4	   O	13.250	61.381	99.694	O.2	1	ASN67	0.000	
5	  CB	14.938	59.169	99.778	C.3	1	ASN67	0.000	
6	  CG	13.701	58.292	99.781	C.2	1	ASN67	0.000	
7	 ND2	13.525	57.546	100.853	N.pl3	1	ASN67	0.000	
8	 OD1	12.914	58.283	98.836	O.2	1	ASN67	0.000	
9	   N	13.588	61.782	97.505	N.am	2	SER68	0.000	
10	  CA	12.668	62.917	97.438	C.3	2	SER68	0.000	
11	   C	11.208	62.499	97.268	C.2	2	SER68	0.000	
12	   O	10.302	63.232	97.662	O.2	2	SER68	0.000	
13	  CB	13.055	63.800	96.257	C.3	2	SER68	0.000	
14	  OG	12.710	63.168	95.033	O.3	2	SER68	0.000	
15	   N	10.991	61.345	96.638	N.am	3	ARG69	0.000	
16	  CA	9.663	60.853	96.292	C.3	3	ARG69	0.000	
17	   C	8.880	61.761	95.344	C.2	3	ARG69	0.000	
18	   O	7.667	61.641	95.261	O.2	3	ARG69	0.000	
19	  CB	8.829	60.603	97.554	C.3	3	ARG69	0.000	
20	  CG	9.490	59.675	98.550	C.3	3	ARG69	0.000	
21	  CD	8.941	59.890	99.943	C.3	3	ARG69	0.000	
22	  NE	9.659	59.070	100.910	N.pl3	3	ARG69	0.000	
23	  CZ	9.209	57.928	101.422	C.cat	3	ARG69	0.000	
24	 NH1	8.021	57.437	101.080	N.pl3	3	ARG69	0.000	
25	 NH2	9.951	57.269	102.296	N.pl3	3	ARG69	0.000	
26	   N	15.410	58.203	78.346	N.am	4	PHE76	0.000	
27	  CA	16.769	57.724	78.122	C.3	4	PHE76	0.000	
28	   C	16.876	57.560	76.608	C.2	4	PHE76	0.000	
29	   O	16.152	56.748	76.040	O.2	4	PHE76	0.000	
30	  CB	17.034	56.378	78.815	C.3	4	PHE76	0.000	
31	  CG	17.131	56.439	80.322	C.2	4	PHE76	0.000	
32	 CD1	17.211	57.648	81.016	C.2	4	PHE76	0.000	
33	 CD2	17.197	55.258	81.052	C.2	4	PHE76	0.000	
34	 CE1	17.332	57.671	82.395	C.2	4	PHE76	0.000	
35	 CE2	17.324	55.273	82.429	C.2	4	PHE76	0.000	
36	  CZ	17.387	56.483	83.107	C.2	4	PHE76	0.000	
37	   N	21.955	51.455	81.991	N.am	5	PRO86	0.000	
38	  CA	21.749	52.544	82.918	C.3	5	PRO86	0.000	
39	   C	21.987	52.059	84.343	C.2	5	PRO86	0.000	
40	   O	21.624	50.940	84.675	O.2	5	PRO86	0.000	
41	  CB	20.287	52.942	82.694	C.3	5	PRO86	0.000	
42	  CG	19.814	52.172	81.516	C.3	5	PRO86	0.000	
43	  CD	20.680	50.953	81.466	C.3	5	PRO86	0.000	
44	   N	21.473	53.287	88.343	N.am	6	TRP88	0.000	
45	  CA	20.910	54.161	89.363	C.3	6	TRP88	0.000	
46	   C	21.727	54.002	90.635	C.2	6	TRP88	0.000	
47	   O	21.988	52.886	91.062	O.2	6	TRP88	0.000	
48	  CB	19.457	53.759	89.651	C.3	6	TRP88	0.000	
49	  CG	18.817	54.548	90.753	C.2	6	TRP88	0.000	
50	 CD1	18.688	55.914	90.822	C.2	6	TRP88	0.000	
51	 CD2	18.205	54.031	91.933	C.2	6	TRP88	0.000	
52	 CE2	17.723	55.136	92.670	C.2	6	TRP88	0.000	
53	 CE3	18.012	52.740	92.443	C.2	6	TRP88	0.000	
54	 NE1	18.030	56.270	91.964	N.pl3	6	TRP88	0.000	
55	 CZ2	17.084	54.990	93.889	C.2	6	TRP88	0.000	
56	 CZ3	17.378	52.596	93.655	C.2	6	TRP88	0.000	
57	 CH2	16.923	53.715	94.372	C.2	6	TRP88	0.000	
58	   N	19.926	54.769	97.531	N.am	7	PHE91	0.000	
59	  CA	19.999	55.692	98.661	C.3	7	PHE91	0.000	
60	   C	21.209	55.436	99.576	C.2	7	PHE91	0.000	
61	   O	21.594	56.304	100.360	O.2	7	PHE91	0.000	
62	  CB	18.683	55.637	99.439	C.3	7	PHE91	0.000	
63	  CG	17.469	55.863	98.574	C.2	7	PHE91	0.000	
64	 CD1	17.373	57.001	97.783	C.2	7	PHE91	0.000	
65	 CD2	16.432	54.934	98.540	C.2	7	PHE91	0.000	
66	 CE1	16.269	57.224	96.987	C.2	7	PHE91	0.000	
67	 CE2	15.321	55.151	97.745	C.2	7	PHE91	0.000	
68	  CZ	15.251	56.297	96.956	C.2	7	PHE91	0.000	
69	   N	22.739	50.292	91.185	N.am	8	GLN96	0.000	
70	  CA	21.736	49.329	90.750	C.3	8	GLN96	0.000	
71	   C	21.625	49.371	89.228	C.2	8	GLN96	0.000	
72	   O	21.283	50.405	88.654	O.2	8	GLN96	0.000	
73	  CB	20.378	49.637	91.358	C.3	8	GLN96	0.000	
74	  CG	19.278	48.683	90.878	C.3	8	GLN96	0.000	
75	  CD	17.955	48.879	91.603	C.2	8	GLN96	0.000	
76	 NE2	16.862	48.494	90.956	N.pl3	8	GLN96	0.000	
77	 OE1	17.918	49.359	92.735	O.2	8	GLN96	0.000	
78	   N	19.988	48.702	85.588	N.am	9	TYR98	0.000	
79	  CA	18.626	48.713	85.047	C.3	9	TYR98	0.000	
80	   C	18.656	48.078	83.662	C.2	9	TYR98	0.000	
81	   O	19.741	47.844	83.135	O.2	9	TYR98	0.000	
82	  CB	18.094	50.149	85.002	C.3	9	TYR98	0.000	
83	  CG	17.354	50.518	86.267	C.2	9	TYR98	0.000	
84	 CD1	18.038	50.708	87.463	C.2	9	TYR98	0.000	
85	 CD2	15.966	50.637	86.282	C.2	9	TYR98	0.000	
86	 CE1	17.362	51.034	88.636	C.2	9	TYR98	0.000	
87	 CE2	15.283	50.972	87.452	C.2	9	TYR98	0.000	
88	  CZ	15.988	51.155	88.633	C.2	9	TYR98	0.000	
89	  OH	15.337	51.475	89.815	O.3	9	TYR98	0.000	
90	   N	17.482	47.771	83.073	N.am	10	PRO99	0.000	
91	  CA	17.487	47.102	81.772	C.3	10	PRO99	0.000	
92	   C	18.254	47.894	80.712	C.2	10	PRO99	0.000	
93	   O	18.337	49.121	80.788	O.2	10	PRO99	0.000	
94	  CB	15.990	47.007	81.419	C.3	10	PRO99	0.000	
95	  CG	15.306	46.981	82.744	C.3	10	PRO99	0.000	
96	  CD	16.109	47.940	83.585	C.3	10	PRO99	0.000	
97	   N	18.818	47.189	79.744	N.am	11	THR100	0.000	
98	  CA	19.727	47.805	78.777	C.3	11	THR100	0.000	
99	   C	18.963	48.467	77.634	C.2	11	THR100	0.000	
100	   O	17.796	48.158	77.412	O.2	11	THR100	0.000	
101	  CB	20.682	46.758	78.197	C.3	11	THR100	0.000	
102	 CG2	21.679	46.295	79.255	C.3	11	THR100	0.000	
103	 OG1	19.916	45.633	77.770	O.3	11	THR100	0.000	
104	   N	19.625	49.384	76.930	N.am	12	LEU101	0.000	
105	  CA	19.081	49.999	75.703	C.3	12	LEU101	0.000	
106	   C	19.949	49.638	74.509	C.2	12	LEU101	0.000	
107	   O	21.158	49.893	74.527	O.2	12	LEU101	0.000	
108	  CB	19.051	51.521	75.812	C.3	12	LEU101	0.000	
109	  CG	18.050	52.106	76.801	C.3	12	LEU101	0.000	
110	 CD1	18.718	52.335	78.146	C.3	12	LEU101	0.000	
111	 CD2	17.462	53.404	76.274	C.3	12	LEU101	0.000	
112	   N	13.891	54.956	75.763	N.am	13	ARG107	0.000	
113	  CA	12.898	54.459	76.708	C.3	13	ARG107	0.000	
114	   C	12.373	55.613	77.536	C.2	13	ARG107	0.000	
115	   O	13.147	56.439	78.024	O.2	13	ARG107	0.000	
116	  CB	13.514	53.420	77.646	C.3	13	ARG107	0.000	
117	  CG	14.085	52.188	76.963	C.3	13	ARG107	0.000	
118	  CD	13.033	51.133	76.729	C.3	13	ARG107	0.000	
119	  NE	13.598	49.935	76.110	N.pl3	13	ARG107	0.000	
120	  CZ	13.946	49.823	74.823	C.cat	13	ARG107	0.000	
121	 NH1	13.814	50.843	73.982	N.pl3	13	ARG107	0.000	
122	 NH2	14.442	48.678	74.368	N.pl3	13	ARG107	0.000	
123	   N	10.984	56.519	80.972	N.am	14	ILE109	0.000	
124	  CA	11.073	55.863	82.275	C.3	14	ILE109	0.000	
125	   C	10.677	56.807	83.370	C.2	14	ILE109	0.000	
126	   O	10.745	58.018	83.211	O.2	14	ILE109	0.000	
127	  CB	12.481	55.283	82.539	C.3	14	ILE109	0.000	
128	 CG1	13.538	56.385	82.693	C.3	14	ILE109	0.000	
129	 CG2	12.885	54.333	81.416	C.3	14	ILE109	0.000	
130	 CD1	13.772	56.849	84.118	C.3	14	ILE109	0.000	
131	   N	10.252	56.229	84.487	N.am	15	HIE110	0.000	
132	  CA	9.825	56.995	85.650	C.3	15	HIE110	0.000	
133	   C	10.940	56.996	86.682	C.2	15	HIE110	0.000	
134	   O	11.340	55.946	87.179	O.2	15	HIE110	0.000	
135	  CB	8.549	56.395	86.225	C.3	15	HIE110	0.000	
136	  CG	7.393	56.474	85.287	C.2	15	HIE110	0.000	
137	 CD2	6.772	55.526	84.550	C.2	15	HIE110	0.000	
138	 ND1	6.759	57.661	84.998	N.2	15	HIE110	0.000	
139	 CE1	5.788	57.440	84.131	C.2	15	HIE110	0.000	
140	 NE2	5.773	56.151	83.846	N.pl3	15	HIE110	0.000	
141	   N	11.452	58.180	86.980	N.am	16	SER111	0.000	
142	  CA	12.497	58.339	87.989	C.3	16	SER111	0.000	
143	   C	12.022	59.388	88.969	C.2	16	SER111	0.000	
144	   O	10.827	59.645	89.048	O.2	16	SER111	0.000	
145	  CB	13.823	58.739	87.338	C.3	16	SER111	0.000	
146	  OG	14.874	58.717	88.286	O.3	16	SER111	0.000	
147	   N	12.944	59.987	89.720	N.am	17	TYR112	0.000	
148	  CA	12.586	60.956	90.756	C.3	17	TYR112	0.000	
149	   C	13.574	62.103	90.821	C.2	17	TYR112	0.000	
150	   O	14.762	61.942	90.503	O.2	17	TYR112	0.000	
151	  CB	12.489	60.260	92.117	C.3	17	TYR112	0.000	
152	  CG	11.345	59.281	92.163	C.2	17	TYR112	0.000	
153	 CD1	11.486	57.994	91.655	C.2	17	TYR112	0.000	
154	 CD2	10.110	59.658	92.669	C.2	17	TYR112	0.000	
155	 CE1	10.422	57.105	91.655	C.2	17	TYR112	0.000	
156	 CE2	9.039	58.781	92.672	C.2	17	TYR112	0.000	
157	  CZ	9.201	57.507	92.170	C.2	17	TYR112	0.000	
158	  OH	8.140	56.640	92.188	O.3	17	TYR112	0.000	
159	   N	17.549	62.064	91.963	N.am	18	HIS115	0.000	
160	  CA	18.133	60.742	91.793	C.3	18	HIS115	0.000	
161	   C	19.334	60.821	90.865	C.2	18	HIS115	0.000	
162	   O	19.382	61.660	89.969	O.2	18	HIS115	0.000	
163	  CB	17.093	59.762	91.271	C.3	18	HIS115	0.000	
164	  CG	16.156	59.284	92.325	C.2	18	HIS115	0.000	
165	 CD2	15.775	59.845	93.498	C.2	18	HIS115	0.000	
166	 ND1	15.526	58.062	92.262	N.pl3	18	HIS115	0.000	
167	 CE1	14.778	57.902	93.338	C.2	18	HIS115	0.000	
168	 NE2	14.915	58.968	94.105	N.pl3	18	HIS115	0.000	
169	   N	22.062	59.024	88.162	N.am	19	TRP117	0.000	
170	  CA	22.216	58.011	87.136	C.3	19	TRP117	0.000	
171	   C	23.557	58.179	86.424	C.2	19	TRP117	0.000	
172	   O	24.050	59.290	86.265	O.2	19	TRP117	0.000	
173	  CB	21.134	58.170	86.082	C.3	19	TRP117	0.000	
174	  CG	19.755	57.868	86.521	C.2	19	TRP117	0.000	
175	 CD1	18.860	58.741	87.042	C.2	19	TRP117	0.000	
176	 CD2	19.081	56.610	86.413	C.2	19	TRP117	0.000	
177	 CE2	17.771	56.795	86.891	C.2	19	TRP117	0.000	
178	 CE3	19.455	55.344	85.947	C.2	19	TRP117	0.000	
179	 NE1	17.659	58.106	87.275	N.pl3	19	TRP117	0.000	
180	 CZ2	16.845	55.757	86.953	C.2	19	TRP117	0.000	
181	 CZ3	18.517	54.310	85.983	C.2	19	TRP117	0.000	
182	 CH2	17.231	54.527	86.484	C.2	19	TRP117	0.000	
@<TRIPOS>BOND
1 1 2 1
2 2 3 1
3 2 5 1
4 3 4 2
5 3 9 1
6 5 6 1
7 6 7 1
8 6 8 2
9 9 10 1
10 10 11 1
11 10 13 1
12 11 12 2
13 11 15 1
14 13 14 1
15 15 16 1
16 16 17 1
17 16 19 1
18 17 18 2
19 19 20 1
20 20 21 1
21 21 22 1
22 22 23 1
23 23 24 2
24 23 25 1
25 26 27 1
26 27 28 1
27 27 30 1
28 28 29 2
29 30 31 1
30 31 32 2
31 31 33 1
32 32 34 1
33 33 35 2
34 34 36 2
35 35 36 1
36 37 38 1
37 37 43 1
38 38 39 1
39 38 41 1
40 39 40 2
41 41 42 1
42 42 43 1
43 44 45 1
44 45 46 1
45 45 48 1
46 46 47 2
47 48 49 1
48 49 50 2
49 49 51 1
50 50 54 1
51 51 52 2
52 51 53 1
53 52 55 1
54 53 56 2
55 52 54 1
56 55 57 2
57 56 57 1
58 58 59 1
59 59 60 1
60 59 62 1
61 60 61 2
62 62 63 1
63 63 64 2
64 63 65 1
65 64 66 1
66 65 67 2
67 66 68 2
68 67 68 1
69 69 70 1
70 70 71 1
71 70 73 1
72 71 72 2
73 73 74 1
74 74 75 1
75 75 76 1
76 75 77 2
77 78 79 1
78 79 80 1
79 79 82 1
80 80 81 2
81 80 90 1
82 82 83 1
83 83 84 2
84 83 85 1
85 84 86 1
86 85 87 2
87 86 88 2
88 87 88 1
89 88 89 1
90 90 91 1
91 90 96 1
92 91 92 1
93 91 94 1
94 92 93 2
95 92 97 1
96 94 95 1
97 95 96 1
98 97 98 1
99 98 99 1
100 98 101 1
101 99 100 2
102 99 104 1
103 101 102 1
104 101 103 1
105 104 105 1
106 105 106 1
107 105 108 1
108 106 107 2
109 108 109 1
110 109 110 1
111 109 111 1
112 112 113 1
113 113 114 1
114 113 116 1
115 114 115 2
116 116 117 1
117 117 118 1
118 118 119 1
119 119 120 1
120 120 121 2
121 120 122 1
122 123 124 1
123 124 125 1
124 124 127 1
125 125 126 2
126 125 131 1
127 127 128 1
128 127 129 1
129 128 130 1
130 131 132 1
131 132 133 1
132 132 135 1
133 133 134 2
134 133 141 1
135 135 136 1
136 136 137 2
137 136 138 1
138 137 140 1
139 138 139 2
140 139 140 1
141 141 142 1
142 142 143 1
143 142 145 1
144 143 144 2
145 143 147 1
146 145 146 1
147 147 148 1
148 148 149 1
149 148 151 1
150 149 150 2
151 151 152 1
152 152 153 2
153 152 154 1
154 153 155 1
155 154 156 2
156 155 157 2
157 156 157 1
158 157 158 1
159 159 160 1
160 160 161 1
161 160 163 1
162 161 162 2
163 163 164 1
164 164 165 2
165 164 166 1
166 165 168 1
167 166 167 2
168 167 168 1
169 169 170 1
170 170 171 1
171 170 173 1
172 171 172 2
173 173 174 1
174 174 175 2
175 174 176 1
176 175 179 1
177 176 177 2
178 176 178 1
179 177 180 1
180 178 181 2
181 177 179 1
182 180 182 2
183 181 182 1
@<TRIPOS>SUBSTRUCTURE
1	ASN67	1	RESIDUE	1 A	ASN
2	SER68	9	RESIDUE	1 A	SER
3	ARG69	15	RESIDUE	1 A	ARG
4	PHE76	26	RESIDUE	1 A	PHE
5	PRO86	37	RESIDUE	1 A	PRO
6	TRP88	44	RESIDUE	1 A	TRP
7	PHE91	58	RESIDUE	1 A	PHE
8	GLN96	69	RESIDUE	1 A	GLN
9	TYR98	78	RESIDUE	1 A	TYR
10	PRO99	90	RESIDUE	1 A	PRO
11	THR100	97	RESIDUE	1 A	THR
12	LEU101	104	RESIDUE	1 A	LEU
13	ARG107	112	RESIDUE	1 A	ARG
14	ILE109	123	RESIDUE	1 A	ILE
15	HIE110	131	RESIDUE	1 A	HIE
16	SER111	141	RESIDUE	1 A	SER
17	TYR112	147	RESIDUE	1 A	TYR
18	HIS115	159	RESIDUE	1 A	HIS
19	TRP117	169	RESIDUE	1 A	TRP
