# created with PyMOL 2.5.2
@<TRIPOS>MOLECULE
EGFR_4W9H_E3ligase
173 175 18              
SMALL
USER_CHARGES
@<TRIPOS>ATOM
1	   N	15.798	60.441	98.439	N.am	1	ASN67	0.000	
2	  CA	14.491	59.813	98.449	C.3	1	ASN67	0.000	
3	   C	13.395	60.871	98.478	C.2	1	ASN67	0.000	
4	   O	12.746	61.085	99.491	O.2	1	ASN67	0.000	
5	  CB	14.359	58.843	99.620	C.3	1	ASN67	0.000	
6	  CG	13.107	58.001	99.533	C.2	1	ASN67	0.000	
7	 ND2	12.771	57.349	100.627	N.pl3	1	ASN67	0.000	
8	 OD1	12.439	57.949	98.499	O.2	1	ASN67	0.000	
9	   N	13.197	61.534	97.346	N.am	2	SER68	0.000	
10	  CA	12.274	62.663	97.261	C.3	2	SER68	0.000	
11	   C	10.824	62.199	97.131	C.2	2	SER68	0.000	
12	   O	9.920	62.889	97.585	O.2	2	SER68	0.000	
13	  CB	12.638	63.531	96.054	C.3	2	SER68	0.000	
14	  OG	12.357	62.839	94.846	O.3	2	SER68	0.000	
15	   N	10.615	61.034	96.504	N.am	3	ARG69	0.000	
16	  CA	9.289	60.555	96.121	C.3	3	ARG69	0.000	
17	   C	8.531	61.537	95.216	C.2	3	ARG69	0.000	
18	   O	7.311	61.526	95.195	O.2	3	ARG69	0.000	
19	  CB	8.424	60.241	97.350	C.3	3	ARG69	0.000	
20	  CG	9.003	59.260	98.353	C.3	3	ARG69	0.000	
21	  CD	8.002	59.090	99.491	C.3	3	ARG69	0.000	
22	  NE	8.421	58.166	100.542	N.pl3	3	ARG69	0.000	
23	  CZ	9.334	58.433	101.477	C.cat	3	ARG69	0.000	
24	 NH1	9.971	59.601	101.499	N.pl3	3	ARG69	0.000	
25	 NH2	9.625	57.516	102.396	N.pl3	3	ARG69	0.000	
26	   N	15.135	58.112	78.200	N.am	4	PHE76	0.000	
27	  CA	16.482	57.624	77.977	C.3	4	PHE76	0.000	
28	   C	16.564	57.474	76.457	C.2	4	PHE76	0.000	
29	   O	15.796	56.714	75.899	O.2	4	PHE76	0.000	
30	  CB	16.735	56.275	78.661	C.3	4	PHE76	0.000	
31	  CG	16.799	56.322	80.175	C.2	4	PHE76	0.000	
32	 CD1	16.839	57.528	80.882	C.2	4	PHE76	0.000	
33	 CD2	16.869	55.136	80.890	C.2	4	PHE76	0.000	
34	 CE1	16.935	57.539	82.266	C.2	4	PHE76	0.000	
35	 CE2	16.968	55.144	82.271	C.2	4	PHE76	0.000	
36	  CZ	17.000	56.350	82.961	C.2	4	PHE76	0.000	
37	   N	21.661	51.374	81.844	N.am	5	PRO86	0.000	
38	  CA	21.420	52.435	82.788	C.3	5	PRO86	0.000	
39	   C	21.639	51.904	84.205	C.2	5	PRO86	0.000	
40	   O	21.293	50.767	84.503	O.2	5	PRO86	0.000	
41	  CB	19.941	52.787	82.560	C.3	5	PRO86	0.000	
42	  CG	19.510	52.034	81.353	C.3	5	PRO86	0.000	
43	  CD	20.401	50.844	81.308	C.3	5	PRO86	0.000	
44	   N	21.043	53.068	88.228	N.am	6	TRP88	0.000	
45	  CA	20.483	53.973	89.215	C.3	6	TRP88	0.000	
46	   C	21.285	53.853	90.513	C.2	6	TRP88	0.000	
47	   O	21.530	52.749	90.997	O.2	6	TRP88	0.000	
48	  CB	19.027	53.623	89.459	C.3	6	TRP88	0.000	
49	  CG	18.404	54.420	90.563	C.2	6	TRP88	0.000	
50	 CD1	18.279	55.783	90.632	C.2	6	TRP88	0.000	
51	 CD2	17.823	53.903	91.754	C.2	6	TRP88	0.000	
52	 CE2	17.361	55.002	92.504	C.2	6	TRP88	0.000	
53	 CE3	17.643	52.609	92.263	C.2	6	TRP88	0.000	
54	 NE1	17.647	56.139	91.797	N.pl3	6	TRP88	0.000	
55	 CZ2	16.741	54.849	93.732	C.2	6	TRP88	0.000	
56	 CZ3	17.028	52.460	93.474	C.2	6	TRP88	0.000	
57	 CH2	16.597	53.571	94.209	C.2	6	TRP88	0.000	
58	   N	19.507	54.526	97.447	N.am	7	PHE91	0.000	
59	  CA	19.545	55.419	98.596	C.3	7	PHE91	0.000	
60	   C	20.732	55.157	99.520	C.2	7	PHE91	0.000	
61	   O	21.103	56.025	100.302	O.2	7	PHE91	0.000	
62	  CB	18.233	55.342	99.366	C.3	7	PHE91	0.000	
63	  CG	17.028	55.609	98.513	C.2	7	PHE91	0.000	
64	 CD1	16.978	56.735	97.695	C.2	7	PHE91	0.000	
65	 CD2	15.955	54.728	98.507	C.2	7	PHE91	0.000	
66	 CE1	15.878	56.984	96.897	C.2	7	PHE91	0.000	
67	 CE2	14.852	54.975	97.718	C.2	7	PHE91	0.000	
68	  CZ	14.821	56.104	96.902	C.2	7	PHE91	0.000	
69	   N	19.561	48.451	85.448	N.am	8	TYR98	0.000	
70	  CA	18.191	48.526	84.923	C.3	8	TYR98	0.000	
71	   C	18.219	47.942	83.507	C.2	8	TYR98	0.000	
72	   O	19.303	47.711	82.974	O.2	8	TYR98	0.000	
73	  CB	17.717	49.988	84.909	C.3	8	TYR98	0.000	
74	  CG	16.977	50.367	86.176	C.2	8	TYR98	0.000	
75	 CD1	17.657	50.557	87.369	C.2	8	TYR98	0.000	
76	 CD2	15.595	50.511	86.180	C.2	8	TYR98	0.000	
77	 CE1	16.978	50.879	88.535	C.2	8	TYR98	0.000	
78	 CE2	14.903	50.841	87.333	C.2	8	TYR98	0.000	
79	  CZ	15.597	51.013	88.511	C.2	8	TYR98	0.000	
80	  OH	14.927	51.346	89.658	O.3	8	TYR98	0.000	
81	   N	17.045	47.689	82.895	N.am	9	PRO99	0.000	
82	  CA	17.055	47.067	81.563	C.3	9	PRO99	0.000	
83	   C	17.876	47.843	80.526	C.2	9	PRO99	0.000	
84	   O	17.948	49.060	80.584	O.2	9	PRO99	0.000	
85	  CB	15.561	47.022	81.192	C.3	9	PRO99	0.000	
86	  CG	14.854	46.940	82.514	C.3	9	PRO99	0.000	
87	  CD	15.669	47.835	83.419	C.3	9	PRO99	0.000	
88	   N	18.510	47.133	79.605	N.am	10	THR100	0.000	
89	  CA	19.402	47.754	78.628	C.3	10	THR100	0.000	
90	   C	18.655	48.420	77.472	C.2	10	THR100	0.000	
91	   O	17.497	48.113	77.236	O.2	10	THR100	0.000	
92	  CB	20.358	46.715	78.038	C.3	10	THR100	0.000	
93	 CG2	21.292	46.183	79.111	C.3	10	THR100	0.000	
94	 OG1	19.595	45.629	77.522	O.3	10	THR100	0.000	
95	   N	19.327	49.338	76.771	N.am	11	LEU101	0.000	
96	  CA	18.795	49.968	75.535	C.3	11	LEU101	0.000	
97	   C	19.642	49.598	74.326	C.2	11	LEU101	0.000	
98	   O	20.861	49.810	74.340	O.2	11	LEU101	0.000	
99	  CB	18.780	51.494	75.636	C.3	11	LEU101	0.000	
100	  CG	17.797	52.110	76.629	C.3	11	LEU101	0.000	
101	 CD1	18.506	52.449	77.920	C.3	11	LEU101	0.000	
102	 CD2	17.127	53.346	76.053	C.3	11	LEU101	0.000	
103	   N	13.540	54.980	75.621	N.am	12	ARG107	0.000	
104	  CA	12.536	54.479	76.552	C.3	12	ARG107	0.000	
105	   C	12.017	55.645	77.381	C.2	12	ARG107	0.000	
106	   O	12.801	56.441	77.908	O.2	12	ARG107	0.000	
107	  CB	13.145	53.419	77.479	C.3	12	ARG107	0.000	
108	  CG	13.767	52.204	76.792	C.3	12	ARG107	0.000	
109	  CD	12.723	51.166	76.452	C.3	12	ARG107	0.000	
110	  NE	13.282	49.882	76.037	N.pl3	12	ARG107	0.000	
111	  CZ	13.747	49.606	74.818	C.cat	12	ARG107	0.000	
112	 NH1	13.772	50.533	73.869	N.pl3	12	ARG107	0.000	
113	 NH2	14.210	48.391	74.547	N.pl3	12	ARG107	0.000	
114	   N	10.644	56.549	80.802	N.am	13	ILE109	0.000	
115	  CA	10.705	55.863	82.094	C.3	13	ILE109	0.000	
116	   C	10.300	56.783	83.224	C.2	13	ILE109	0.000	
117	   O	10.354	58.014	83.105	O.2	13	ILE109	0.000	
118	  CB	12.100	55.239	82.384	C.3	13	ILE109	0.000	
119	 CG1	13.189	56.309	82.521	C.3	13	ILE109	0.000	
120	 CG2	12.492	54.248	81.296	C.3	13	ILE109	0.000	
121	 CD1	13.450	56.767	83.944	C.3	13	ILE109	0.000	
122	   N	9.882	56.164	84.323	N.am	14	HIE110	0.000	
123	  CA	9.491	56.888	85.509	C.3	14	HIE110	0.000	
124	   C	10.670	56.891	86.464	C.2	14	HIE110	0.000	
125	   O	11.116	55.841	86.924	O.2	14	HIE110	0.000	
126	  CB	8.300	56.213	86.176	C.3	14	HIE110	0.000	
127	  CG	7.017	56.383	85.433	C.2	14	HIE110	0.000	
128	 CD2	5.796	56.791	85.848	C.2	14	HIE110	0.000	
129	 ND1	6.885	56.080	84.095	N.2	14	HIE110	0.000	
130	 CE1	5.645	56.314	83.711	C.2	14	HIE110	0.000	
131	 NE2	4.963	56.745	84.757	N.pl3	14	HIE110	0.000	
132	   N	11.171	58.074	86.762	N.am	15	SER111	0.000	
133	  CA	12.171	58.228	87.790	C.3	15	SER111	0.000	
134	   C	11.680	59.280	88.761	C.2	15	SER111	0.000	
135	   O	10.483	59.516	88.860	O.2	15	SER111	0.000	
136	  CB	13.527	58.588	87.185	C.3	15	SER111	0.000	
137	  OG	14.546	58.457	88.170	O.3	15	SER111	0.000	
138	   N	12.593	59.898	89.496	N.am	16	TYR112	0.000	
139	  CA	12.213	60.827	90.560	C.3	16	TYR112	0.000	
140	   C	13.196	61.962	90.647	C.2	16	TYR112	0.000	
141	   O	14.363	61.809	90.296	O.2	16	TYR112	0.000	
142	  CB	12.123	60.104	91.903	C.3	16	TYR112	0.000	
143	  CG	10.980	59.109	91.970	C.2	16	TYR112	0.000	
144	 CD1	11.134	57.828	91.473	C.2	16	TYR112	0.000	
145	 CD2	9.747	59.462	92.512	C.2	16	TYR112	0.000	
146	 CE1	10.096	56.912	91.516	C.2	16	TYR112	0.000	
147	 CE2	8.688	58.560	92.545	C.2	16	TYR112	0.000	
148	  CZ	8.877	57.281	92.047	C.2	16	TYR112	0.000	
149	  OH	7.869	56.347	92.076	O.3	16	TYR112	0.000	
150	   N	17.146	61.908	91.820	N.am	17	HIS115	0.000	
151	  CA	17.764	60.605	91.644	C.3	17	HIS115	0.000	
152	   C	18.998	60.719	90.756	C.2	17	HIS115	0.000	
153	   O	19.119	61.641	89.954	O.2	17	HIS115	0.000	
154	  CB	16.759	59.609	91.104	C.3	17	HIS115	0.000	
155	  CG	15.797	59.136	92.141	C.2	17	HIS115	0.000	
156	 CD2	15.431	59.676	93.331	C.2	17	HIS115	0.000	
157	 ND1	15.121	57.945	92.035	N.pl3	17	HIS115	0.000	
158	 CE1	14.365	57.777	93.106	C.2	17	HIS115	0.000	
159	 NE2	14.530	58.817	93.902	N.pl3	17	HIS115	0.000	
160	   N	21.695	58.888	88.048	N.am	18	TRP117	0.000	
161	  CA	21.866	57.850	87.041	C.3	18	TRP117	0.000	
162	   C	23.191	58.022	86.316	C.2	18	TRP117	0.000	
163	   O	23.641	59.139	86.121	O.2	18	TRP117	0.000	
164	  CB	20.782	57.966	85.986	C.3	18	TRP117	0.000	
165	  CG	19.416	57.660	86.422	C.2	18	TRP117	0.000	
166	 CD1	18.516	58.532	86.929	C.2	18	TRP117	0.000	
167	 CD2	18.760	56.398	86.335	C.2	18	TRP117	0.000	
168	 CE2	17.448	56.581	86.804	C.2	18	TRP117	0.000	
169	 CE3	19.144	55.130	85.874	C.2	18	TRP117	0.000	
170	 NE1	17.327	57.893	87.173	N.pl3	18	TRP117	0.000	
171	 CZ2	16.533	55.550	86.865	C.2	18	TRP117	0.000	
172	 CZ3	18.220	54.098	85.920	C.2	18	TRP117	0.000	
173	 CH2	16.929	54.317	86.403	C.2	18	TRP117	0.000	
@<TRIPOS>BOND
1 1 2 1
2 2 3 1
3 2 5 1
4 3 4 2
5 3 9 1
6 5 6 1
7 6 7 1
8 6 8 2
9 9 10 1
10 10 11 1
11 10 13 1
12 11 12 2
13 11 15 1
14 13 14 1
15 15 16 1
16 16 17 1
17 16 19 1
18 17 18 2
19 19 20 1
20 20 21 1
21 21 22 1
22 22 23 1
23 23 24 2
24 23 25 1
25 26 27 1
26 27 28 1
27 27 30 1
28 28 29 2
29 30 31 1
30 31 32 2
31 31 33 1
32 32 34 1
33 33 35 2
34 34 36 2
35 35 36 1
36 37 38 1
37 37 43 1
38 38 39 1
39 38 41 1
40 39 40 2
41 41 42 1
42 42 43 1
43 44 45 1
44 45 46 1
45 45 48 1
46 46 47 2
47 48 49 1
48 49 50 2
49 49 51 1
50 50 54 1
51 51 52 2
52 51 53 1
53 52 55 1
54 53 56 2
55 52 54 1
56 55 57 2
57 56 57 1
58 58 59 1
59 59 60 1
60 59 62 1
61 60 61 2
62 62 63 1
63 63 64 2
64 63 65 1
65 64 66 1
66 65 67 2
67 66 68 2
68 67 68 1
69 69 70 1
70 70 71 1
71 70 73 1
72 71 72 2
73 71 81 1
74 73 74 1
75 74 75 2
76 74 76 1
77 75 77 1
78 76 78 2
79 77 79 2
80 78 79 1
81 79 80 1
82 81 82 1
83 81 87 1
84 82 83 1
85 82 85 1
86 83 84 2
87 83 88 1
88 85 86 1
89 86 87 1
90 88 89 1
91 89 90 1
92 89 92 1
93 90 91 2
94 90 95 1
95 92 93 1
96 92 94 1
97 95 96 1
98 96 97 1
99 96 99 1
100 97 98 2
101 99 100 1
102 100 101 1
103 100 102 1
104 103 104 1
105 104 105 1
106 104 107 1
107 105 106 2
108 107 108 1
109 108 109 1
110 109 110 1
111 110 111 1
112 111 112 2
113 111 113 1
114 114 115 1
115 115 116 1
116 115 118 1
117 116 117 2
118 116 122 1
119 118 119 1
120 118 120 1
121 119 121 1
122 122 123 1
123 123 124 1
124 123 126 1
125 124 125 2
126 124 132 1
127 126 127 1
128 127 128 2
129 127 129 1
130 128 131 1
131 129 130 2
132 130 131 1
133 132 133 1
134 133 134 1
135 133 136 1
136 134 135 2
137 134 138 1
138 136 137 1
139 138 139 1
140 139 140 1
141 139 142 1
142 140 141 2
143 142 143 1
144 143 144 2
145 143 145 1
146 144 146 1
147 145 147 2
148 146 148 2
149 147 148 1
150 148 149 1
151 150 151 1
152 151 152 1
153 151 154 1
154 152 153 2
155 154 155 1
156 155 156 2
157 155 157 1
158 156 159 1
159 157 158 2
160 158 159 1
161 160 161 1
162 161 162 1
163 161 164 1
164 162 163 2
165 164 165 1
166 165 166 2
167 165 167 1
168 166 170 1
169 167 168 2
170 167 169 1
171 168 171 1
172 169 172 2
173 168 170 1
174 171 173 2
175 172 173 1
@<TRIPOS>SUBSTRUCTURE
1	ASN67	1	RESIDUE	1 A	ASN
2	SER68	9	RESIDUE	1 A	SER
3	ARG69	15	RESIDUE	1 A	ARG
4	PHE76	26	RESIDUE	1 A	PHE
5	PRO86	37	RESIDUE	1 A	PRO
6	TRP88	44	RESIDUE	1 A	TRP
7	PHE91	58	RESIDUE	1 A	PHE
8	TYR98	69	RESIDUE	1 A	TYR
9	PRO99	81	RESIDUE	1 A	PRO
10	THR100	88	RESIDUE	1 A	THR
11	LEU101	95	RESIDUE	1 A	LEU
12	ARG107	103	RESIDUE	1 A	ARG
13	ILE109	114	RESIDUE	1 A	ILE
14	HIE110	122	RESIDUE	1 A	HIE
15	SER111	132	RESIDUE	1 A	SER
16	TYR112	138	RESIDUE	1 A	TYR
17	HIS115	150	RESIDUE	1 A	HIS
18	TRP117	160	RESIDUE	1 A	TRP
