# created with PyMOL 2.5.2
@<TRIPOS>MOLECULE
BRD4_7BQV_E3ligase
121 127 12              
SMALL
USER_CHARGES
@<TRIPOS>ATOM
1	   N	-23.634	-24.738	-6.194	N.am	1	VAL350	0.000	
2	  CA	-23.167	-24.173	-7.455	C.3	1	VAL350	0.000	
3	   C	-24.326	-23.431	-8.107	C.2	1	VAL350	0.000	
4	   O	-25.410	-24.000	-8.287	O.2	1	VAL350	0.000	
5	  CB	-22.627	-25.265	-8.396	C.3	1	VAL350	0.000	
6	 CG1	-21.890	-24.639	-9.574	C.3	1	VAL350	0.000	
7	 CG2	-21.713	-26.224	-7.641	C.3	1	VAL350	0.000	
8	   N	-24.092	-22.186	-8.487	N.am	2	ASN351	0.000	
9	  CA	-25.111	-21.395	-9.165	C.3	2	ASN351	0.000	
10	   C	-25.053	-21.649	-10.668	C.2	2	ASN351	0.000	
11	   O	-24.174	-22.368	-11.162	O.2	2	ASN351	0.000	
12	  CB	-24.963	-19.919	-8.754	C.3	2	ASN351	0.000	
13	  CG	-23.995	-19.093	-9.627	C.2	2	ASN351	0.000	
14	 ND2	-23.960	-17.792	-9.336	N.pl3	2	ASN351	0.000	
15	 OD1	-23.273	-19.587	-10.487	O.2	2	ASN351	0.000	
16	   N	-26.013	-21.125	-11.444	N.am	3	PRO352	0.000	
17	  CA	-26.096	-21.531	-12.860	C.3	3	PRO352	0.000	
18	   C	-24.948	-21.032	-13.715	C.2	3	PRO352	0.000	
19	   O	-24.870	-21.408	-14.895	O.2	3	PRO352	0.000	
20	  CB	-27.436	-20.939	-13.323	C.3	3	PRO352	0.000	
21	  CG	-27.776	-19.921	-12.336	C.3	3	PRO352	0.000	
22	  CD	-27.217	-20.380	-11.035	C.3	3	PRO352	0.000	
23	   N	-24.060	-20.207	-13.163	N.am	4	HIS353	0.000	
24	  CA	-22.870	-19.760	-13.865	C.3	4	HIS353	0.000	
25	   C	-21.600	-20.384	-13.311	C.2	4	HIS353	0.000	
26	   O	-20.501	-19.951	-13.669	O.2	4	HIS353	0.000	
27	  CB	-22.782	-18.232	-13.825	C.3	4	HIS353	0.000	
28	  CG	-23.825	-17.563	-14.662	C.2	4	HIS353	0.000	
29	 CD2	-25.068	-17.128	-14.353	C.2	4	HIS353	0.000	
30	 ND1	-23.654	-17.316	-16.008	N.pl3	4	HIS353	0.000	
31	 CE1	-24.741	-16.737	-16.485	C.2	4	HIS353	0.000	
32	 NE2	-25.613	-16.611	-15.501	N.pl3	4	HIS353	0.000	
33	   N	-36.431	-20.087	-9.742	N.am	5	GLU377	0.000	
34	  CA	-35.508	-20.612	-10.738	C.3	5	GLU377	0.000	
35	   C	-34.172	-20.946	-10.088	C.2	5	GLU377	0.000	
36	   O	-33.604	-20.126	-9.364	O.2	5	GLU377	0.000	
37	  CB	-35.311	-19.595	-11.862	C.3	5	GLU377	0.000	
38	  CG	-36.517	-19.426	-12.767	C.3	5	GLU377	0.000	
39	  CD	-36.255	-18.465	-13.914	C.2	5	GLU377	0.000	
40	 OE1	-37.121	-17.605	-14.182	O.co2	5	GLU377	0.000	
41	 OE2	-35.181	-18.569	-14.546	O.co2	5	GLU377	0.000	
42	   N	-33.687	-22.166	-10.332	N.am	6	HIS378	0.000	
43	  CA	-32.375	-22.626	-9.864	C.3	6	HIS378	0.000	
44	   C	-32.275	-22.725	-8.343	C.2	6	HIS378	0.000	
45	   O	-31.165	-22.805	-7.805	O.2	6	HIS378	0.000	
46	  CB	-31.244	-21.728	-10.382	C.3	6	HIS378	0.000	
47	  CG	-31.387	-21.346	-11.824	C.2	6	HIS378	0.000	
48	 CD2	-31.192	-22.062	-12.956	C.2	6	HIS378	0.000	
49	 ND1	-31.781	-20.087	-12.229	N.pl3	6	HIS378	0.000	
50	 CE1	-31.822	-20.046	-13.548	C.2	6	HIS378	0.000	
51	 NE2	-31.467	-21.230	-14.014	N.pl3	6	HIS378	0.000	
52	   N	-33.399	-22.748	-7.630	N.am	7	SER379	0.000	
53	  CA	-33.352	-22.723	-6.170	C.3	7	SER379	0.000	
54	   C	-32.675	-23.975	-5.620	C.2	7	SER379	0.000	
55	   O	-33.032	-25.104	-5.976	O.2	7	SER379	0.000	
56	  CB	-34.760	-22.591	-5.589	C.3	7	SER379	0.000	
57	  OG	-34.746	-22.767	-4.181	O.3	7	SER379	0.000	
58	   N	-31.678	-23.766	-4.759	N.am	8	TRP380	0.000	
59	  CA	-30.947	-24.854	-4.121	C.3	8	TRP380	0.000	
60	   C	-31.792	-25.615	-3.111	C.2	8	TRP380	0.000	
61	   O	-31.394	-26.708	-2.687	O.2	8	TRP380	0.000	
62	  CB	-29.704	-24.296	-3.423	C.3	8	TRP380	0.000	
63	  CG	-28.701	-23.706	-4.358	C.2	8	TRP380	0.000	
64	 CD1	-28.368	-24.166	-5.599	C.2	8	TRP380	0.000	
65	 CD2	-27.887	-22.553	-4.125	C.2	8	TRP380	0.000	
66	 CE2	-27.090	-22.367	-5.275	C.2	8	TRP380	0.000	
67	 CE3	-27.756	-21.658	-3.058	C.2	8	TRP380	0.000	
68	 NE1	-27.402	-23.366	-6.158	N.pl3	8	TRP380	0.000	
69	 CZ2	-26.167	-21.324	-5.385	C.2	8	TRP380	0.000	
70	 CZ3	-26.846	-20.621	-3.169	C.2	8	TRP380	0.000	
71	 CH2	-26.061	-20.464	-4.325	C.2	8	TRP380	0.000	
72	   N	-32.939	-25.069	-2.719	N.am	9	PHE381	0.000	
73	  CA	-33.788	-25.665	-1.691	C.3	9	PHE381	0.000	
74	   C	-35.186	-25.837	-2.263	C.2	9	PHE381	0.000	
75	   O	-35.978	-24.875	-2.269	O.2	9	PHE381	0.000	
76	  CB	-33.781	-24.797	-0.439	C.3	9	PHE381	0.000	
77	  CG	-32.405	-24.558	0.101	C.2	9	PHE381	0.000	
78	 CD1	-31.756	-25.543	0.827	C.2	9	PHE381	0.000	
79	 CD2	-31.748	-23.360	-0.131	C.2	9	PHE381	0.000	
80	 CE1	-30.479	-25.339	1.324	C.2	9	PHE381	0.000	
81	 CE2	-30.466	-23.147	0.357	C.2	9	PHE381	0.000	
82	  CZ	-29.830	-24.137	1.090	C.2	9	PHE381	0.000	
83	   N	-36.011	-17.647	-3.742	N.am	10	TRP386	0.000	
84	  CA	-34.901	-16.872	-3.207	C.3	10	TRP386	0.000	
85	   C	-34.995	-15.411	-3.628	C.2	10	TRP386	0.000	
86	   O	-35.467	-15.085	-4.724	O.2	10	TRP386	0.000	
87	  CB	-33.541	-17.444	-3.641	C.3	10	TRP386	0.000	
88	  CG	-33.352	-17.527	-5.136	C.2	10	TRP386	0.000	
89	 CD1	-33.595	-18.611	-5.932	C.2	10	TRP386	0.000	
90	 CD2	-32.868	-16.491	-6.007	C.2	10	TRP386	0.000	
91	 CE2	-32.850	-17.020	-7.317	C.2	10	TRP386	0.000	
92	 CE3	-32.445	-15.170	-5.807	C.2	10	TRP386	0.000	
93	 NE1	-33.299	-18.312	-7.244	N.pl3	10	TRP386	0.000	
94	 CZ2	-32.432	-16.273	-8.424	C.2	10	TRP386	0.000	
95	 CZ3	-32.032	-14.431	-6.905	C.2	10	TRP386	0.000	
96	 CH2	-32.030	-14.985	-8.197	C.2	10	TRP386	0.000	
97	   N	-29.011	-14.733	0.415	N.am	11	TRP400	0.000	
98	  CA	-30.369	-14.709	-0.108	C.3	11	TRP400	0.000	
99	   C	-31.340	-15.052	1.008	C.2	11	TRP400	0.000	
100	   O	-31.013	-15.809	1.925	O.2	11	TRP400	0.000	
101	  CB	-30.567	-15.701	-1.266	C.3	11	TRP400	0.000	
102	  CG	-29.552	-15.587	-2.370	C.2	11	TRP400	0.000	
103	 CD1	-29.702	-14.919	-3.558	C.2	11	TRP400	0.000	
104	 CD2	-28.239	-16.166	-2.397	C.2	11	TRP400	0.000	
105	 CE2	-27.649	-15.801	-3.624	C.2	11	TRP400	0.000	
106	 CE3	-27.504	-16.953	-1.498	C.2	11	TRP400	0.000	
107	 NE1	-28.561	-15.043	-4.313	N.pl3	11	TRP400	0.000	
108	 CZ2	-26.355	-16.208	-3.988	C.2	11	TRP400	0.000	
109	 CZ3	-26.219	-17.353	-1.857	C.2	11	TRP400	0.000	
110	 CH2	-25.659	-16.976	-3.090	C.2	11	TRP400	0.000	
111	   N	-34.740	-17.057	1.721	N.am	12	PHE402	0.000	
112	  CA	-35.509	-18.148	1.143	C.3	12	PHE402	0.000	
113	   C	-36.886	-18.161	1.785	C.2	12	PHE402	0.000	
114	   O	-37.004	-18.095	3.013	O.2	12	PHE402	0.000	
115	  CB	-34.787	-19.482	1.334	C.3	12	PHE402	0.000	
116	  CG	-33.547	-19.603	0.504	C.2	12	PHE402	0.000	
117	 CD1	-33.614	-20.077	-0.800	C.2	12	PHE402	0.000	
118	 CD2	-32.323	-19.213	1.008	C.2	12	PHE402	0.000	
119	 CE1	-32.475	-20.179	-1.584	C.2	12	PHE402	0.000	
120	 CE2	-31.174	-19.315	0.232	C.2	12	PHE402	0.000	
121	  CZ	-31.255	-19.790	-1.069	C.2	12	PHE402	0.000	
@<TRIPOS>BOND
1 1 2 1
2 2 3 1
3 2 5 1
4 3 4 2
5 3 8 1
6 5 6 1
7 5 7 1
8 8 9 1
9 9 10 1
10 9 12 1
11 10 11 2
12 10 16 1
13 12 13 1
14 13 14 1
15 13 15 2
16 16 17 1
17 16 22 1
18 17 18 1
19 17 20 1
20 18 19 2
21 18 23 1
22 20 21 1
23 21 22 1
24 23 24 1
25 24 25 1
26 24 27 1
27 25 26 2
28 27 28 1
29 28 29 2
30 28 30 1
31 29 32 1
32 30 31 2
33 31 32 1
34 33 34 1
35 34 35 1
36 34 37 1
37 35 36 2
38 35 42 1
39 37 38 1
40 38 39 1
41 39 40 2
42 39 41 1
43 42 43 1
44 43 44 1
45 43 46 1
46 44 45 2
47 44 52 1
48 46 47 1
49 47 48 2
50 47 49 1
51 48 51 1
52 49 50 2
53 50 51 1
54 52 53 1
55 53 54 1
56 53 56 1
57 54 55 2
58 54 58 1
59 56 57 1
60 58 59 1
61 59 60 1
62 59 62 1
63 60 61 2
64 60 72 1
65 62 63 1
66 63 64 2
67 63 65 1
68 64 68 1
69 65 66 2
70 65 67 1
71 66 69 1
72 67 70 2
73 66 68 1
74 69 71 2
75 70 71 1
76 72 73 1
77 73 74 1
78 73 76 1
79 74 75 2
80 76 77 1
81 77 78 2
82 77 79 1
83 78 80 1
84 79 81 2
85 80 82 2
86 81 82 1
87 83 84 1
88 84 85 1
89 84 87 1
90 85 86 2
91 87 88 1
92 88 89 2
93 88 90 1
94 89 93 1
95 90 91 2
96 90 92 1
97 91 94 1
98 92 95 2
99 91 93 1
100 94 96 2
101 95 96 1
102 97 98 1
103 98 99 1
104 98 101 1
105 99 100 2
106 101 102 1
107 102 103 2
108 102 104 1
109 103 107 1
110 104 105 2
111 104 106 1
112 105 108 1
113 106 109 2
114 105 107 1
115 108 110 2
116 109 110 1
117 111 112 1
118 112 113 1
119 112 115 1
120 113 114 2
121 115 116 1
122 116 117 2
123 116 118 1
124 117 119 1
125 118 120 2
126 119 121 2
127 120 121 1
@<TRIPOS>SUBSTRUCTURE
1	VAL350	1	RESIDUE	1 A	VAL
2	ASN351	8	RESIDUE	1 A	ASN
3	PRO352	16	RESIDUE	1 A	PRO
4	HIS353	23	RESIDUE	1 A	HIS
5	GLU377	33	RESIDUE	1 A	GLU
6	HIS378	42	RESIDUE	1 A	HIS
7	SER379	52	RESIDUE	1 A	SER
8	TRP380	58	RESIDUE	1 A	TRP
9	PHE381	72	RESIDUE	1 A	PHE
10	TRP386	83	RESIDUE	1 A	TRP
11	TRP400	97	RESIDUE	1 A	TRP
12	PHE402	111	RESIDUE	1 A	PHE
