# created with PyMOL 2.5.2
@<TRIPOS>MOLECULE
BCL2_4W9H_E3ligase
176 176 18              
SMALL
USER_CHARGES
@<TRIPOS>ATOM
1	   N	15.798	60.441	98.439	N.am	1	ASN67	0.000	
2	  CA	14.491	59.813	98.449	C.3	1	ASN67	0.000	
3	   C	13.395	60.871	98.478	C.2	1	ASN67	0.000	
4	   O	12.746	61.085	99.491	O.2	1	ASN67	0.000	
5	  CB	14.359	58.843	99.620	C.3	1	ASN67	0.000	
6	  CG	13.107	58.001	99.533	C.2	1	ASN67	0.000	
7	 ND2	12.771	57.349	100.627	N.pl3	1	ASN67	0.000	
8	 OD1	12.439	57.949	98.499	O.2	1	ASN67	0.000	
9	   N	10.615	61.034	96.504	N.am	2	ARG69	0.000	
10	  CA	9.289	60.555	96.121	C.3	2	ARG69	0.000	
11	   C	8.531	61.537	95.216	C.2	2	ARG69	0.000	
12	   O	7.311	61.526	95.195	O.2	2	ARG69	0.000	
13	  CB	8.424	60.241	97.350	C.3	2	ARG69	0.000	
14	  CG	9.003	59.260	98.353	C.3	2	ARG69	0.000	
15	  CD	8.002	59.090	99.491	C.3	2	ARG69	0.000	
16	  NE	8.421	58.166	100.542	N.pl3	2	ARG69	0.000	
17	  CZ	9.334	58.433	101.477	C.cat	2	ARG69	0.000	
18	 NH1	9.971	59.601	101.499	N.pl3	2	ARG69	0.000	
19	 NH2	9.625	57.516	102.396	N.pl3	2	ARG69	0.000	
20	   N	15.135	58.112	78.200	N.am	3	PHE76	0.000	
21	  CA	16.482	57.624	77.977	C.3	3	PHE76	0.000	
22	   C	16.564	57.474	76.457	C.2	3	PHE76	0.000	
23	   O	15.796	56.714	75.899	O.2	3	PHE76	0.000	
24	  CB	16.735	56.275	78.661	C.3	3	PHE76	0.000	
25	  CG	16.799	56.322	80.175	C.2	3	PHE76	0.000	
26	 CD1	16.839	57.528	80.882	C.2	3	PHE76	0.000	
27	 CD2	16.869	55.136	80.890	C.2	3	PHE76	0.000	
28	 CE1	16.935	57.539	82.266	C.2	3	PHE76	0.000	
29	 CE2	16.968	55.144	82.271	C.2	3	PHE76	0.000	
30	  CZ	17.000	56.350	82.961	C.2	3	PHE76	0.000	
31	   N	21.661	51.374	81.844	N.am	4	PRO86	0.000	
32	  CA	21.420	52.435	82.788	C.3	4	PRO86	0.000	
33	   C	21.639	51.904	84.205	C.2	4	PRO86	0.000	
34	   O	21.293	50.767	84.503	O.2	4	PRO86	0.000	
35	  CB	19.941	52.787	82.560	C.3	4	PRO86	0.000	
36	  CG	19.510	52.034	81.353	C.3	4	PRO86	0.000	
37	  CD	20.401	50.844	81.308	C.3	4	PRO86	0.000	
38	   N	21.043	53.068	88.228	N.am	5	TRP88	0.000	
39	  CA	20.483	53.973	89.215	C.3	5	TRP88	0.000	
40	   C	21.285	53.853	90.513	C.2	5	TRP88	0.000	
41	   O	21.530	52.749	90.997	O.2	5	TRP88	0.000	
42	  CB	19.027	53.623	89.459	C.3	5	TRP88	0.000	
43	  CG	18.404	54.420	90.563	C.2	5	TRP88	0.000	
44	 CD1	18.279	55.783	90.632	C.2	5	TRP88	0.000	
45	 CD2	17.823	53.903	91.754	C.2	5	TRP88	0.000	
46	 CE2	17.361	55.002	92.504	C.2	5	TRP88	0.000	
47	 CE3	17.643	52.609	92.263	C.2	5	TRP88	0.000	
48	 NE1	17.647	56.139	91.797	N.pl3	5	TRP88	0.000	
49	 CZ2	16.741	54.849	93.732	C.2	5	TRP88	0.000	
50	 CZ3	17.028	52.460	93.474	C.2	5	TRP88	0.000	
51	 CH2	16.597	53.571	94.209	C.2	5	TRP88	0.000	
52	   N	19.507	54.526	97.447	N.am	6	PHE91	0.000	
53	  CA	19.545	55.419	98.596	C.3	6	PHE91	0.000	
54	   C	20.732	55.157	99.520	C.2	6	PHE91	0.000	
55	   O	21.103	56.025	100.302	O.2	6	PHE91	0.000	
56	  CB	18.233	55.342	99.366	C.3	6	PHE91	0.000	
57	  CG	17.028	55.609	98.513	C.2	6	PHE91	0.000	
58	 CD1	16.978	56.735	97.695	C.2	6	PHE91	0.000	
59	 CD2	15.955	54.728	98.507	C.2	6	PHE91	0.000	
60	 CE1	15.878	56.984	96.897	C.2	6	PHE91	0.000	
61	 CE2	14.852	54.975	97.718	C.2	6	PHE91	0.000	
62	  CZ	14.821	56.104	96.902	C.2	6	PHE91	0.000	
63	   N	22.408	50.140	91.002	N.am	7	GLN96	0.000	
64	  CA	21.419	49.163	90.595	C.3	7	GLN96	0.000	
65	   C	21.285	49.186	89.071	C.2	7	GLN96	0.000	
66	   O	20.939	50.222	88.505	O.2	7	GLN96	0.000	
67	  CB	20.076	49.470	91.234	C.3	7	GLN96	0.000	
68	  CG	18.980	48.528	90.768	C.3	7	GLN96	0.000	
69	  CD	17.691	48.694	91.545	C.2	7	GLN96	0.000	
70	 NE2	16.570	48.390	90.896	N.pl3	7	GLN96	0.000	
71	 OE1	17.698	49.078	92.715	O.2	7	GLN96	0.000	
72	   N	19.561	48.451	85.448	N.am	8	TYR98	0.000	
73	  CA	18.191	48.526	84.923	C.3	8	TYR98	0.000	
74	   C	18.219	47.942	83.507	C.2	8	TYR98	0.000	
75	   O	19.303	47.711	82.974	O.2	8	TYR98	0.000	
76	  CB	17.717	49.988	84.909	C.3	8	TYR98	0.000	
77	  CG	16.977	50.367	86.176	C.2	8	TYR98	0.000	
78	 CD1	17.657	50.557	87.369	C.2	8	TYR98	0.000	
79	 CD2	15.595	50.511	86.180	C.2	8	TYR98	0.000	
80	 CE1	16.978	50.879	88.535	C.2	8	TYR98	0.000	
81	 CE2	14.903	50.841	87.333	C.2	8	TYR98	0.000	
82	  CZ	15.597	51.013	88.511	C.2	8	TYR98	0.000	
83	  OH	14.927	51.346	89.658	O.3	8	TYR98	0.000	
84	   N	17.045	47.689	82.895	N.am	9	PRO99	0.000	
85	  CA	17.055	47.067	81.563	C.3	9	PRO99	0.000	
86	   C	17.876	47.843	80.526	C.2	9	PRO99	0.000	
87	   O	17.948	49.060	80.584	O.2	9	PRO99	0.000	
88	  CB	15.561	47.022	81.192	C.3	9	PRO99	0.000	
89	  CG	14.854	46.940	82.514	C.3	9	PRO99	0.000	
90	  CD	15.669	47.835	83.419	C.3	9	PRO99	0.000	
91	   N	18.510	47.133	79.605	N.am	10	THR100	0.000	
92	  CA	19.402	47.754	78.628	C.3	10	THR100	0.000	
93	   C	18.655	48.420	77.472	C.2	10	THR100	0.000	
94	   O	17.497	48.113	77.236	O.2	10	THR100	0.000	
95	  CB	20.358	46.715	78.038	C.3	10	THR100	0.000	
96	 CG2	21.292	46.183	79.111	C.3	10	THR100	0.000	
97	 OG1	19.595	45.629	77.522	O.3	10	THR100	0.000	
98	   N	19.327	49.338	76.771	N.am	11	LEU101	0.000	
99	  CA	18.795	49.968	75.535	C.3	11	LEU101	0.000	
100	   C	19.642	49.598	74.326	C.2	11	LEU101	0.000	
101	   O	20.861	49.810	74.340	O.2	11	LEU101	0.000	
102	  CB	18.780	51.494	75.636	C.3	11	LEU101	0.000	
103	  CG	17.797	52.110	76.629	C.3	11	LEU101	0.000	
104	 CD1	18.506	52.449	77.920	C.3	11	LEU101	0.000	
105	 CD2	17.127	53.346	76.053	C.3	11	LEU101	0.000	
106	   N	13.540	54.980	75.621	N.am	12	ARG107	0.000	
107	  CA	12.536	54.479	76.552	C.3	12	ARG107	0.000	
108	   C	12.017	55.645	77.381	C.2	12	ARG107	0.000	
109	   O	12.801	56.441	77.908	O.2	12	ARG107	0.000	
110	  CB	13.145	53.419	77.479	C.3	12	ARG107	0.000	
111	  CG	13.767	52.204	76.792	C.3	12	ARG107	0.000	
112	  CD	12.723	51.166	76.452	C.3	12	ARG107	0.000	
113	  NE	13.282	49.882	76.037	N.pl3	12	ARG107	0.000	
114	  CZ	13.747	49.606	74.818	C.cat	12	ARG107	0.000	
115	 NH1	13.772	50.533	73.869	N.pl3	12	ARG107	0.000	
116	 NH2	14.210	48.391	74.547	N.pl3	12	ARG107	0.000	
117	   N	10.644	56.549	80.802	N.am	13	ILE109	0.000	
118	  CA	10.705	55.863	82.094	C.3	13	ILE109	0.000	
119	   C	10.300	56.783	83.224	C.2	13	ILE109	0.000	
120	   O	10.354	58.014	83.105	O.2	13	ILE109	0.000	
121	  CB	12.100	55.239	82.384	C.3	13	ILE109	0.000	
122	 CG1	13.189	56.309	82.521	C.3	13	ILE109	0.000	
123	 CG2	12.492	54.248	81.296	C.3	13	ILE109	0.000	
124	 CD1	13.450	56.767	83.944	C.3	13	ILE109	0.000	
125	   N	9.882	56.164	84.323	N.am	14	HIE110	0.000	
126	  CA	9.491	56.888	85.509	C.3	14	HIE110	0.000	
127	   C	10.670	56.891	86.464	C.2	14	HIE110	0.000	
128	   O	11.116	55.841	86.924	O.2	14	HIE110	0.000	
129	  CB	8.300	56.213	86.176	C.3	14	HIE110	0.000	
130	  CG	7.017	56.383	85.433	C.2	14	HIE110	0.000	
131	 CD2	5.796	56.791	85.848	C.2	14	HIE110	0.000	
132	 ND1	6.885	56.080	84.095	N.2	14	HIE110	0.000	
133	 CE1	5.645	56.314	83.711	C.2	14	HIE110	0.000	
134	 NE2	4.963	56.745	84.757	N.pl3	14	HIE110	0.000	
135	   N	11.171	58.074	86.762	N.am	15	SER111	0.000	
136	  CA	12.171	58.228	87.790	C.3	15	SER111	0.000	
137	   C	11.680	59.280	88.761	C.2	15	SER111	0.000	
138	   O	10.483	59.516	88.860	O.2	15	SER111	0.000	
139	  CB	13.527	58.588	87.185	C.3	15	SER111	0.000	
140	  OG	14.546	58.457	88.170	O.3	15	SER111	0.000	
141	   N	12.593	59.898	89.496	N.am	16	TYR112	0.000	
142	  CA	12.213	60.827	90.560	C.3	16	TYR112	0.000	
143	   C	13.196	61.962	90.647	C.2	16	TYR112	0.000	
144	   O	14.363	61.809	90.296	O.2	16	TYR112	0.000	
145	  CB	12.123	60.104	91.903	C.3	16	TYR112	0.000	
146	  CG	10.980	59.109	91.970	C.2	16	TYR112	0.000	
147	 CD1	11.134	57.828	91.473	C.2	16	TYR112	0.000	
148	 CD2	9.747	59.462	92.512	C.2	16	TYR112	0.000	
149	 CE1	10.096	56.912	91.516	C.2	16	TYR112	0.000	
150	 CE2	8.688	58.560	92.545	C.2	16	TYR112	0.000	
151	  CZ	8.877	57.281	92.047	C.2	16	TYR112	0.000	
152	  OH	7.869	56.347	92.076	O.3	16	TYR112	0.000	
153	   N	17.146	61.908	91.820	N.am	17	HIS115	0.000	
154	  CA	17.764	60.605	91.644	C.3	17	HIS115	0.000	
155	   C	18.998	60.719	90.756	C.2	17	HIS115	0.000	
156	   O	19.119	61.641	89.954	O.2	17	HIS115	0.000	
157	  CB	16.759	59.609	91.104	C.3	17	HIS115	0.000	
158	  CG	15.797	59.136	92.141	C.2	17	HIS115	0.000	
159	 CD2	15.431	59.676	93.331	C.2	17	HIS115	0.000	
160	 ND1	15.121	57.945	92.035	N.pl3	17	HIS115	0.000	
161	 CE1	14.365	57.777	93.106	C.2	17	HIS115	0.000	
162	 NE2	14.530	58.817	93.902	N.pl3	17	HIS115	0.000	
163	   N	21.695	58.888	88.048	N.am	18	TRP117	0.000	
164	  CA	21.866	57.850	87.041	C.3	18	TRP117	0.000	
165	   C	23.191	58.022	86.316	C.2	18	TRP117	0.000	
166	   O	23.641	59.139	86.121	O.2	18	TRP117	0.000	
167	  CB	20.782	57.966	85.986	C.3	18	TRP117	0.000	
168	  CG	19.416	57.660	86.422	C.2	18	TRP117	0.000	
169	 CD1	18.516	58.532	86.929	C.2	18	TRP117	0.000	
170	 CD2	18.760	56.398	86.335	C.2	18	TRP117	0.000	
171	 CE2	17.448	56.581	86.804	C.2	18	TRP117	0.000	
172	 CE3	19.144	55.130	85.874	C.2	18	TRP117	0.000	
173	 NE1	17.327	57.893	87.173	N.pl3	18	TRP117	0.000	
174	 CZ2	16.533	55.550	86.865	C.2	18	TRP117	0.000	
175	 CZ3	18.220	54.098	85.920	C.2	18	TRP117	0.000	
176	 CH2	16.929	54.317	86.403	C.2	18	TRP117	0.000	
@<TRIPOS>BOND
1 1 2 1
2 2 3 1
3 2 5 1
4 3 4 2
5 5 6 1
6 6 7 1
7 6 8 2
8 9 10 1
9 10 11 1
10 10 13 1
11 11 12 2
12 13 14 1
13 14 15 1
14 15 16 1
15 16 17 1
16 17 18 2
17 17 19 1
18 20 21 1
19 21 22 1
20 21 24 1
21 22 23 2
22 24 25 1
23 25 26 2
24 25 27 1
25 26 28 1
26 27 29 2
27 28 30 2
28 29 30 1
29 31 32 1
30 31 37 1
31 32 33 1
32 32 35 1
33 33 34 2
34 35 36 1
35 36 37 1
36 38 39 1
37 39 40 1
38 39 42 1
39 40 41 2
40 42 43 1
41 43 44 2
42 43 45 1
43 44 48 1
44 45 46 2
45 45 47 1
46 46 49 1
47 47 50 2
48 46 48 1
49 49 51 2
50 50 51 1
51 52 53 1
52 53 54 1
53 53 56 1
54 54 55 2
55 56 57 1
56 57 58 2
57 57 59 1
58 58 60 1
59 59 61 2
60 60 62 2
61 61 62 1
62 63 64 1
63 64 65 1
64 64 67 1
65 65 66 2
66 67 68 1
67 68 69 1
68 69 70 1
69 69 71 2
70 72 73 1
71 73 74 1
72 73 76 1
73 74 75 2
74 74 84 1
75 76 77 1
76 77 78 2
77 77 79 1
78 78 80 1
79 79 81 2
80 80 82 2
81 81 82 1
82 82 83 1
83 84 85 1
84 84 90 1
85 85 86 1
86 85 88 1
87 86 87 2
88 86 91 1
89 88 89 1
90 89 90 1
91 91 92 1
92 92 93 1
93 92 95 1
94 93 94 2
95 93 98 1
96 95 96 1
97 95 97 1
98 98 99 1
99 99 100 1
100 99 102 1
101 100 101 2
102 102 103 1
103 103 104 1
104 103 105 1
105 106 107 1
106 107 108 1
107 107 110 1
108 108 109 2
109 110 111 1
110 111 112 1
111 112 113 1
112 113 114 1
113 114 115 2
114 114 116 1
115 117 118 1
116 118 119 1
117 118 121 1
118 119 120 2
119 119 125 1
120 121 122 1
121 121 123 1
122 122 124 1
123 125 126 1
124 126 127 1
125 126 129 1
126 127 128 2
127 127 135 1
128 129 130 1
129 130 131 2
130 130 132 1
131 131 134 1
132 132 133 2
133 133 134 1
134 135 136 1
135 136 137 1
136 136 139 1
137 137 138 2
138 137 141 1
139 139 140 1
140 141 142 1
141 142 143 1
142 142 145 1
143 143 144 2
144 145 146 1
145 146 147 2
146 146 148 1
147 147 149 1
148 148 150 2
149 149 151 2
150 150 151 1
151 151 152 1
152 153 154 1
153 154 155 1
154 154 157 1
155 155 156 2
156 157 158 1
157 158 159 2
158 158 160 1
159 159 162 1
160 160 161 2
161 161 162 1
162 163 164 1
163 164 165 1
164 164 167 1
165 165 166 2
166 167 168 1
167 168 169 2
168 168 170 1
169 169 173 1
170 170 171 2
171 170 172 1
172 171 174 1
173 172 175 2
174 171 173 1
175 174 176 2
176 175 176 1
@<TRIPOS>SUBSTRUCTURE
1	ASN67	1	RESIDUE	1 A	ASN
2	ARG69	9	RESIDUE	1 A	ARG
3	PHE76	20	RESIDUE	1 A	PHE
4	PRO86	31	RESIDUE	1 A	PRO
5	TRP88	38	RESIDUE	1 A	TRP
6	PHE91	52	RESIDUE	1 A	PHE
7	GLN96	63	RESIDUE	1 A	GLN
8	TYR98	72	RESIDUE	1 A	TYR
9	PRO99	84	RESIDUE	1 A	PRO
10	THR100	91	RESIDUE	1 A	THR
11	LEU101	98	RESIDUE	1 A	LEU
12	ARG107	106	RESIDUE	1 A	ARG
13	ILE109	117	RESIDUE	1 A	ILE
14	HIE110	125	RESIDUE	1 A	HIE
15	SER111	135	RESIDUE	1 A	SER
16	TYR112	141	RESIDUE	1 A	TYR
17	HIS115	153	RESIDUE	1 A	HIS
18	TRP117	163	RESIDUE	1 A	TRP
