# created with PyMOL 2.5.2
@<TRIPOS>MOLECULE
CDK6_6H0G_E3ligase
20 22 1                 
SMALL
USER_CHARGES
@<TRIPOS>ATOM
1	  O5	2.799	53.759	-82.850	O.2	1	RES1	0.000	
2	  N6	1.961	54.460	-85.611	N.pl3	1	RES1	0.000	
3	  O6	3.684	49.649	-77.419	O.3	1	RES1	0.000	
4	  N7	1.740	51.789	-82.089	N.2	1	RES1	0.000	
5	  O7	0.192	50.479	-80.194	O.2	1	RES1	0.000	
6	  N8	1.992	50.092	-78.865	N.pl3	1	RES1	0.000	
7	  O8	0.461	49.804	-82.255	O.2	1	RES1	0.000	
8	 C23	1.328	53.195	-85.443	C.2	1	RES1	0.000	
9	 C24	0.524	52.673	-86.476	C.2	1	RES1	0.000	
10	 C25	-0.179	51.481	-86.288	C.2	1	RES1	0.000	
11	 C26	-0.123	50.776	-85.075	C.2	1	RES1	0.000	
12	 C27	0.642	51.322	-84.069	C.2	1	RES1	0.000	
13	 C28	1.359	52.517	-84.234	C.2	1	RES1	0.000	
14	 C29	2.069	52.798	-82.999	C.2	1	RES1	0.000	
15	 C30	2.244	51.649	-80.752	C.3	1	RES1	0.000	
16	 C31	3.717	51.245	-80.678	C.3	1	RES1	0.000	
17	 C32	4.163	51.167	-79.214	C.3	1	RES1	0.000	
18	 C33	3.263	50.226	-78.421	C.3	1	RES1	0.000	
19	 C34	1.371	50.671	-79.924	C.2	1	RES1	0.000	
20	 C35	0.919	50.842	-82.710	C.2	1	RES1	0.000	
@<TRIPOS>BOND
1 2 8 1
2 8 9 ar
3 8 13 ar
4 9 10 ar
5 10 11 ar
6 11 12 ar
7 12 13 ar
8 12 20 ar
9 13 14 ar
10 1 14 2
11 4 14 ar
12 4 15 1
13 15 16 1
14 15 19 1
15 16 17 1
16 17 18 1
17 3 18 1
18 6 18 1
19 5 19 2
20 6 19 1
21 4 20 ar
22 7 20 2
@<TRIPOS>SUBSTRUCTURE
1	RES1	1	GROUP	1 ****	RES
