# created with PyMOL 2.5.2
@<TRIPOS>MOLECULE
CDK6_6H0G_E3ligase
20 22 1                 
SMALL
USER_CHARGES
@<TRIPOS>ATOM
1	  N6	1.980	54.444	-85.602	N.pl3	1	RES1	0.000	
2	  N7	1.738	51.790	-82.104	N.2	1	RES1	0.000	
3	  O7	2.804	53.748	-82.851	O.2	1	RES1	0.000	
4	  N8	2.007	50.069	-78.878	N.pl3	1	RES1	0.000	
5	  O8	3.694	49.661	-77.419	O.2	1	RES1	0.000	
6	  O9	0.209	50.426	-80.253	O.2	1	RES1	0.000	
7	 O10	0.427	49.846	-82.239	O.2	1	RES1	0.000	
8	 C27	1.337	53.191	-85.452	C.2	1	RES1	0.000	
9	 C28	0.533	52.668	-86.464	C.2	1	RES1	0.000	
10	 C29	-0.201	51.465	-86.277	C.2	1	RES1	0.000	
11	 C30	-0.122	50.784	-85.071	C.2	1	RES1	0.000	
12	 C31	0.663	51.326	-84.053	C.2	1	RES1	0.000	
13	 C32	1.344	52.498	-84.233	C.2	1	RES1	0.000	
14	 C33	2.065	52.802	-82.983	C.2	1	RES1	0.000	
15	 C34	2.231	51.654	-80.751	C.3	1	RES1	0.000	
16	 C35	3.718	51.276	-80.659	C.3	1	RES1	0.000	
17	 C36	4.142	51.198	-79.192	C.3	1	RES1	0.000	
18	 C37	3.274	50.230	-78.406	C.2	1	RES1	0.000	
19	 C38	1.380	50.648	-79.976	C.2	1	RES1	0.000	
20	 C39	0.901	50.869	-82.701	C.2	1	RES1	0.000	
@<TRIPOS>BOND
1 7 20 2
2 1 8 1
3 8 9 ar
4 8 13 ar
5 9 10 ar
6 10 11 ar
7 11 12 ar
8 12 13 ar
9 12 20 ar
10 13 14 ar
11 2 14 ar
12 3 14 2
13 2 15 1
14 15 16 1
15 15 19 1
16 16 17 1
17 17 18 1
18 4 18 1
19 5 18 2
20 4 19 1
21 6 19 2
22 2 20 ar
@<TRIPOS>SUBSTRUCTURE
1	RES1	1	GROUP	1 ****	RES
