# created with PyMOL 2.5.2
@<TRIPOS>MOLECULE
CDK6_6H0G_E3ligase
20 22 1                 
SMALL
USER_CHARGES
@<TRIPOS>ATOM
1	  O3	2.863	53.750	-82.866	O.2	1	RES1	0.000	
2	  O4	3.663	49.678	-77.393	O.3	1	RES1	0.000	
3	  O5	0.238	50.399	-80.273	O.2	1	RES1	0.000	
4	  N6	1.987	54.426	-85.623	N.pl3	1	RES1	0.000	
5	  O6	0.427	49.829	-82.241	O.2	1	RES1	0.000	
6	  N7	1.760	51.779	-82.125	N.2	1	RES1	0.000	
7	  N8	1.989	50.051	-78.887	N.pl3	1	RES1	0.000	
8	 C22	1.333	53.189	-85.454	C.2	1	RES1	0.000	
9	 C23	0.500	52.668	-86.464	C.2	1	RES1	0.000	
10	 C24	-0.215	51.489	-86.275	C.2	1	RES1	0.000	
11	 C25	-0.151	50.808	-85.033	C.2	1	RES1	0.000	
12	 C26	0.642	51.350	-84.057	C.2	1	RES1	0.000	
13	 C27	1.352	52.511	-84.234	C.2	1	RES1	0.000	
14	 C28	2.086	52.783	-83.023	C.2	1	RES1	0.000	
15	 C29	2.263	51.654	-80.747	C.3	1	RES1	0.000	
16	 C30	3.715	51.282	-80.628	C.3	1	RES1	0.000	
17	 C31	4.144	51.208	-79.159	C.3	1	RES1	0.000	
18	 C32	3.247	50.241	-78.402	C.3	1	RES1	0.000	
19	 C33	1.388	50.630	-79.985	C.2	1	RES1	0.000	
20	 C34	0.894	50.865	-82.698	C.2	1	RES1	0.000	
@<TRIPOS>BOND
1 4 8 1
2 8 9 ar
3 8 13 ar
4 9 10 ar
5 10 11 ar
6 11 12 ar
7 12 13 ar
8 12 20 ar
9 13 14 ar
10 1 14 2
11 6 14 ar
12 6 15 1
13 15 16 1
14 15 19 1
15 16 17 1
16 17 18 1
17 2 18 1
18 7 18 1
19 3 19 2
20 7 19 1
21 5 20 2
22 6 20 ar
@<TRIPOS>SUBSTRUCTURE
1	RES1	1	GROUP	1 ****	RES
