# created with PyMOL 2.5.2
@<TRIPOS>MOLECULE
CDK6_6H0G_E3ligase
20 22 1                 
SMALL
USER_CHARGES
@<TRIPOS>ATOM
1	  O3	2.803	53.766	-82.841	O.2	1	RES1	0.000	
2	  O4	3.676	49.656	-77.409	O.3	1	RES1	0.000	
3	  O5	0.189	50.490	-80.178	O.2	1	RES1	0.000	
4	  N6	1.947	54.443	-85.609	N.pl3	1	RES1	0.000	
5	  O6	0.450	49.814	-82.260	O.2	1	RES1	0.000	
6	  N7	1.739	51.798	-82.097	N.2	1	RES1	0.000	
7	  N8	1.977	50.081	-78.861	N.pl3	1	RES1	0.000	
8	 C22	1.329	53.202	-85.446	C.2	1	RES1	0.000	
9	 C23	0.517	52.670	-86.456	C.2	1	RES1	0.000	
10	 C24	-0.188	51.473	-86.290	C.2	1	RES1	0.000	
11	 C25	-0.102	50.776	-85.079	C.2	1	RES1	0.000	
12	 C26	0.676	51.330	-84.064	C.2	1	RES1	0.000	
13	 C27	1.319	52.497	-84.243	C.2	1	RES1	0.000	
14	 C28	2.088	52.800	-83.004	C.2	1	RES1	0.000	
15	 C29	2.248	51.653	-80.742	C.3	1	RES1	0.000	
16	 C30	3.722	51.227	-80.682	C.3	1	RES1	0.000	
17	 C31	4.155	51.154	-79.216	C.3	1	RES1	0.000	
18	 C32	3.288	50.224	-78.426	C.3	1	RES1	0.000	
19	 C33	1.364	50.681	-79.950	C.2	1	RES1	0.000	
20	 C34	0.927	50.859	-82.713	C.2	1	RES1	0.000	
@<TRIPOS>BOND
1 4 8 1
2 8 9 ar
3 8 13 ar
4 9 10 ar
5 10 11 ar
6 11 12 ar
7 12 13 ar
8 12 20 ar
9 13 14 ar
10 1 14 2
11 6 14 ar
12 6 15 1
13 15 16 1
14 15 19 1
15 16 17 1
16 17 18 1
17 2 18 1
18 7 18 1
19 3 19 2
20 7 19 1
21 5 20 2
22 6 20 ar
@<TRIPOS>SUBSTRUCTURE
1	RES1	1	GROUP	1 ****	RES
