# created with PyMOL 2.5.2
@<TRIPOS>MOLECULE
CDK6_6H0G_E3ligase
20 22 1                 
SMALL
USER_CHARGES
@<TRIPOS>ATOM
1	  O2	2.809	53.762	-82.845	O.2	1	RES1	0.000	
2	  O3	3.696	49.654	-77.437	O.2	1	RES1	0.000	
3	  O4	0.214	50.415	-80.250	O.2	1	RES1	0.000	
4	  O5	0.428	49.851	-82.222	O.2	1	RES1	0.000	
5	  N6	1.975	54.437	-85.600	N.pl3	1	RES1	0.000	
6	  N7	1.736	51.814	-82.096	N.2	1	RES1	0.000	
7	  N8	1.990	50.039	-78.890	N.pl3	1	RES1	0.000	
8	 C23	1.332	53.169	-85.453	C.2	1	RES1	0.000	
9	 C24	0.536	52.669	-86.468	C.2	1	RES1	0.000	
10	 C25	-0.178	51.461	-86.261	C.2	1	RES1	0.000	
11	 C26	-0.120	50.792	-85.081	C.2	1	RES1	0.000	
12	 C27	0.665	51.327	-84.066	C.2	1	RES1	0.000	
13	 C28	1.345	52.491	-84.242	C.2	1	RES1	0.000	
14	 C29	2.060	52.813	-82.987	C.2	1	RES1	0.000	
15	 C30	2.229	51.672	-80.730	C.3	1	RES1	0.000	
16	 C31	3.706	51.285	-80.644	C.3	1	RES1	0.000	
17	 C32	4.138	51.201	-79.208	C.3	1	RES1	0.000	
18	 C33	3.271	50.222	-78.436	C.2	1	RES1	0.000	
19	 C34	1.390	50.646	-79.969	C.2	1	RES1	0.000	
20	 C35	0.902	50.871	-82.681	C.2	1	RES1	0.000	
@<TRIPOS>BOND
1 1 14 2
2 2 18 2
3 5 8 1
4 8 9 ar
5 8 13 ar
6 9 10 ar
7 10 11 ar
8 11 12 ar
9 12 13 ar
10 12 20 ar
11 13 14 ar
12 6 14 ar
13 6 15 1
14 15 16 1
15 15 19 1
16 16 17 1
17 17 18 1
18 7 18 1
19 3 19 2
20 7 19 1
21 4 20 2
22 6 20 ar
@<TRIPOS>SUBSTRUCTURE
1	RES1	1	GROUP	1 ****	RES
