# created with PyMOL 2.5.2
@<TRIPOS>MOLECULE
CDK6_6H0G_E3ligase
20 22 1                 
SMALL
USER_CHARGES
@<TRIPOS>ATOM
1	  O2	2.820	53.716	-82.824	O.2	1	RES1	0.000	
2	  O3	3.688	49.724	-77.386	O.2	1	RES1	0.000	
3	  O4	0.214	50.436	-80.194	O.2	1	RES1	0.000	
4	  O5	0.412	49.826	-82.255	O.2	1	RES1	0.000	
5	  N6	1.977	54.440	-85.598	N.pl3	1	RES1	0.000	
6	  N7	1.726	51.744	-82.120	N.2	1	RES1	0.000	
7	  N8	1.995	50.086	-78.855	N.pl3	1	RES1	0.000	
8	 C24	1.326	53.204	-85.447	C.2	1	RES1	0.000	
9	 C25	0.531	52.679	-86.454	C.2	1	RES1	0.000	
10	 C26	-0.185	51.491	-86.315	C.2	1	RES1	0.000	
11	 C27	-0.139	50.815	-85.093	C.2	1	RES1	0.000	
12	 C28	0.654	51.341	-84.067	C.2	1	RES1	0.000	
13	 C29	1.355	52.492	-84.241	C.2	1	RES1	0.000	
14	 C30	2.056	52.792	-82.998	C.2	1	RES1	0.000	
15	 C31	2.240	51.611	-80.753	C.3	1	RES1	0.000	
16	 C32	3.729	51.251	-80.670	C.3	1	RES1	0.000	
17	 C33	4.161	51.190	-79.206	C.3	1	RES1	0.000	
18	 C34	3.271	50.253	-78.401	C.2	1	RES1	0.000	
19	 C35	1.399	50.662	-79.969	C.2	1	RES1	0.000	
20	 C36	0.896	50.839	-82.722	C.2	1	RES1	0.000	
@<TRIPOS>BOND
1 1 14 2
2 2 18 2
3 5 8 1
4 8 9 ar
5 8 13 ar
6 9 10 ar
7 10 11 ar
8 11 12 ar
9 12 13 ar
10 12 20 ar
11 13 14 ar
12 6 14 ar
13 6 15 1
14 15 16 1
15 15 19 1
16 16 17 1
17 17 18 1
18 7 18 1
19 3 19 2
20 7 19 1
21 4 20 2
22 6 20 ar
@<TRIPOS>SUBSTRUCTURE
1	RES1	1	GROUP	1 ****	RES
