# created with PyMOL 2.5.2
@<TRIPOS>MOLECULE
CDK6_6H0G_E3ligase
20 22 1                 
SMALL
USER_CHARGES
@<TRIPOS>ATOM
1	  O4	2.814	53.760	-82.858	O.2	1	RES1	0.000	
2	  N5	1.972	54.441	-85.620	N.pl3	1	RES1	0.000	
3	  O5	3.686	49.657	-77.425	O.3	1	RES1	0.000	
4	  N6	1.725	51.806	-82.115	N.2	1	RES1	0.000	
5	  O6	0.200	50.427	-80.223	O.2	1	RES1	0.000	
6	  N7	1.997	50.050	-78.876	N.pl3	1	RES1	0.000	
7	  O7	0.433	49.828	-82.252	O.2	1	RES1	0.000	
8	 C21	1.339	53.202	-85.459	C.2	1	RES1	0.000	
9	 C22	0.531	52.664	-86.452	C.2	1	RES1	0.000	
10	 C23	-0.188	51.457	-86.281	C.2	1	RES1	0.000	
11	 C24	-0.130	50.782	-85.070	C.2	1	RES1	0.000	
12	 C25	0.678	51.329	-84.064	C.2	1	RES1	0.000	
13	 C26	1.342	52.508	-84.234	C.2	1	RES1	0.000	
14	 C27	2.064	52.818	-83.001	C.2	1	RES1	0.000	
15	 C28	2.239	51.666	-80.726	C.3	1	RES1	0.000	
16	 C29	3.698	51.277	-80.647	C.3	1	RES1	0.000	
17	 C30	4.150	51.188	-79.210	C.3	1	RES1	0.000	
18	 C31	3.288	50.219	-78.413	C.3	1	RES1	0.000	
19	 C32	1.375	50.647	-79.952	C.2	1	RES1	0.000	
20	 C33	0.911	50.869	-82.687	C.2	1	RES1	0.000	
@<TRIPOS>BOND
1 2 8 1
2 8 9 ar
3 8 13 ar
4 9 10 ar
5 10 11 ar
6 11 12 ar
7 12 13 ar
8 12 20 ar
9 13 14 ar
10 1 14 2
11 4 14 ar
12 4 15 1
13 15 16 1
14 15 19 1
15 16 17 1
16 17 18 1
17 3 18 1
18 6 18 1
19 5 19 2
20 6 19 1
21 4 20 ar
22 7 20 2
@<TRIPOS>SUBSTRUCTURE
1	RES1	1	GROUP	1 ****	RES
