# created with PyMOL 2.5.2
@<TRIPOS>MOLECULE
CDK6_6H0G_E3ligase
20 22 1                 
SMALL
USER_CHARGES
@<TRIPOS>ATOM
1	  O4	2.835	53.742	-82.846	O.2	1	RES1	0.000	
2	  O5	3.677	49.650	-77.404	O.3	1	RES1	0.000	
3	  N6	1.982	54.440	-85.630	N.pl3	1	RES1	0.000	
4	  O6	0.223	50.408	-80.239	O.2	1	RES1	0.000	
5	  N7	1.745	51.799	-82.106	N.2	1	RES1	0.000	
6	  O7	0.415	49.853	-82.223	O.2	1	RES1	0.000	
7	  N8	1.999	50.054	-78.886	N.pl3	1	RES1	0.000	
8	 C22	1.333	53.181	-85.449	C.2	1	RES1	0.000	
9	 C23	0.524	52.671	-86.464	C.2	1	RES1	0.000	
10	 C24	-0.187	51.469	-86.289	C.2	1	RES1	0.000	
11	 C25	-0.130	50.787	-85.069	C.2	1	RES1	0.000	
12	 C26	0.644	51.333	-84.056	C.2	1	RES1	0.000	
13	 C27	1.362	52.520	-84.235	C.2	1	RES1	0.000	
14	 C28	2.056	52.788	-82.991	C.2	1	RES1	0.000	
15	 C29	2.236	51.666	-80.754	C.3	1	RES1	0.000	
16	 C30	3.719	51.289	-80.657	C.3	1	RES1	0.000	
17	 C31	4.129	51.239	-79.194	C.3	1	RES1	0.000	
18	 C32	3.283	50.219	-78.411	C.3	1	RES1	0.000	
19	 C33	1.380	50.630	-79.972	C.2	1	RES1	0.000	
20	 C34	0.900	50.857	-82.692	C.2	1	RES1	0.000	
@<TRIPOS>BOND
1 3 8 1
2 8 9 ar
3 8 13 ar
4 9 10 ar
5 10 11 ar
6 11 12 ar
7 12 13 ar
8 12 20 ar
9 13 14 ar
10 1 14 2
11 5 14 ar
12 5 15 1
13 15 16 1
14 15 19 1
15 16 17 1
16 17 18 1
17 2 18 1
18 7 18 1
19 4 19 2
20 7 19 1
21 5 20 ar
22 6 20 2
@<TRIPOS>SUBSTRUCTURE
1	RES1	1	GROUP	1 ****	RES
