# created with PyMOL 2.5.2
@<TRIPOS>MOLECULE
CDK6_6H0G_E3ligase
20 22 1                 
SMALL
USER_CHARGES
@<TRIPOS>ATOM
1	  O4	2.828	53.745	-82.860	O.2	1	RES1	0.000	
2	  O5	3.677	49.715	-77.384	O.2	1	RES1	0.000	
3	  N6	1.994	54.436	-85.611	N.pl3	1	RES1	0.000	
4	  O6	0.225	50.384	-80.230	O.2	1	RES1	0.000	
5	  N7	1.741	51.760	-82.099	N.2	1	RES1	0.000	
6	  O7	0.395	49.836	-82.258	O.2	1	RES1	0.000	
7	  N8	1.995	50.079	-78.864	N.pl3	1	RES1	0.000	
8	 C23	1.343	53.194	-85.461	C.2	1	RES1	0.000	
9	 C24	0.521	52.695	-86.464	C.2	1	RES1	0.000	
10	 C25	-0.192	51.479	-86.295	C.2	1	RES1	0.000	
11	 C26	-0.126	50.794	-85.080	C.2	1	RES1	0.000	
12	 C27	0.635	51.345	-84.051	C.2	1	RES1	0.000	
13	 C28	1.355	52.509	-84.230	C.2	1	RES1	0.000	
14	 C29	2.060	52.788	-82.987	C.2	1	RES1	0.000	
15	 C30	2.240	51.629	-80.741	C.3	1	RES1	0.000	
16	 C31	3.716	51.269	-80.663	C.3	1	RES1	0.000	
17	 C32	4.160	51.201	-79.207	C.3	1	RES1	0.000	
18	 C33	3.271	50.249	-78.405	C.2	1	RES1	0.000	
19	 C34	1.402	50.630	-79.974	C.2	1	RES1	0.000	
20	 C35	0.886	50.858	-82.704	C.2	1	RES1	0.000	
@<TRIPOS>BOND
1 3 8 1
2 8 9 ar
3 8 13 ar
4 9 10 ar
5 10 11 ar
6 11 12 ar
7 12 13 ar
8 12 20 ar
9 13 14 ar
10 1 14 2
11 5 14 ar
12 5 15 1
13 15 16 1
14 15 19 1
15 16 17 1
16 17 18 1
17 2 18 2
18 7 18 1
19 4 19 2
20 7 19 1
21 5 20 ar
22 6 20 2
@<TRIPOS>SUBSTRUCTURE
1	RES1	1	GROUP	1 ****	RES
