# created with PyMOL 2.5.2
@<TRIPOS>MOLECULE
CDK6_6H0G_E3ligase
20 22 1                 
SMALL
USER_CHARGES
@<TRIPOS>ATOM
1	  O3	2.801	53.759	-82.841	O.2	1	RES1	0.000	
2	  O4	3.677	49.671	-77.415	O.3	1	RES1	0.000	
3	  O5	0.208	50.456	-80.197	O.2	1	RES1	0.000	
4	  N6	1.960	54.449	-85.617	N.pl3	1	RES1	0.000	
5	  O6	0.433	49.825	-82.243	O.2	1	RES1	0.000	
6	  N7	1.736	51.775	-82.114	N.2	1	RES1	0.000	
7	  N8	1.969	50.080	-78.837	N.pl3	1	RES1	0.000	
8	 C23	1.338	53.216	-85.428	C.2	1	RES1	0.000	
9	 C24	0.520	52.675	-86.461	C.2	1	RES1	0.000	
10	 C25	-0.179	51.478	-86.293	C.2	1	RES1	0.000	
11	 C26	-0.117	50.769	-85.063	C.2	1	RES1	0.000	
12	 C27	0.669	51.346	-84.065	C.2	1	RES1	0.000	
13	 C28	1.352	52.491	-84.254	C.2	1	RES1	0.000	
14	 C29	2.066	52.784	-83.013	C.2	1	RES1	0.000	
15	 C30	2.248	51.639	-80.747	C.3	1	RES1	0.000	
16	 C31	3.724	51.246	-80.673	C.3	1	RES1	0.000	
17	 C32	4.152	51.177	-79.220	C.3	1	RES1	0.000	
18	 C33	3.297	50.229	-78.409	C.3	1	RES1	0.000	
19	 C34	1.376	50.674	-79.958	C.2	1	RES1	0.000	
20	 C35	0.895	50.854	-82.716	C.2	1	RES1	0.000	
@<TRIPOS>BOND
1 4 8 1
2 8 9 ar
3 8 13 ar
4 9 10 ar
5 10 11 ar
6 11 12 ar
7 12 13 ar
8 12 20 ar
9 13 14 ar
10 1 14 2
11 6 14 ar
12 6 15 1
13 15 16 1
14 15 19 1
15 16 17 1
16 17 18 1
17 2 18 1
18 7 18 1
19 3 19 2
20 7 19 1
21 5 20 2
22 6 20 ar
@<TRIPOS>SUBSTRUCTURE
1	RES1	1	GROUP	1 ****	RES
