# created with PyMOL 2.5.2
@<TRIPOS>MOLECULE
BRD4_6H0G_E3ligase
20 22 1                 
SMALL
USER_CHARGES
@<TRIPOS>ATOM
1	  O2	2.804	53.756	-82.829	O.2	1	RES1	0.000	
2	  O3	3.712	49.681	-77.424	O.2	1	RES1	0.000	
3	  O4	0.197	50.435	-80.209	O.2	1	RES1	0.000	
4	  O5	0.413	49.800	-82.257	O.2	1	RES1	0.000	
5	  N6	1.979	54.444	-85.603	N.pl3	1	RES1	0.000	
6	  N7	1.718	51.788	-82.102	N.2	1	RES1	0.000	
7	  N8	2.002	50.061	-78.883	N.pl3	1	RES1	0.000	
8	 C19	1.348	53.211	-85.444	C.2	1	RES1	0.000	
9	 C20	0.542	52.689	-86.466	C.2	1	RES1	0.000	
10	 C21	-0.169	51.460	-86.307	C.2	1	RES1	0.000	
11	 C22	-0.117	50.780	-85.083	C.2	1	RES1	0.000	
12	 C23	0.654	51.320	-84.062	C.2	1	RES1	0.000	
13	 C24	1.346	52.512	-84.230	C.2	1	RES1	0.000	
14	 C25	2.049	52.809	-82.983	C.2	1	RES1	0.000	
15	 C26	2.230	51.641	-80.723	C.3	1	RES1	0.000	
16	 C27	3.703	51.259	-80.655	C.3	1	RES1	0.000	
17	 C28	4.143	51.204	-79.234	C.3	1	RES1	0.000	
18	 C29	3.290	50.234	-78.422	C.2	1	RES1	0.000	
19	 C30	1.383	50.658	-79.941	C.2	1	RES1	0.000	
20	 C31	0.899	50.853	-82.709	C.2	1	RES1	0.000	
@<TRIPOS>BOND
1 1 14 2
2 5 8 1
3 8 9 ar
4 8 13 ar
5 9 10 ar
6 10 11 ar
7 11 12 ar
8 12 13 ar
9 12 20 ar
10 13 14 ar
11 6 14 ar
12 6 15 1
13 15 16 1
14 15 19 1
15 16 17 1
16 17 18 1
17 2 18 2
18 7 18 1
19 3 19 2
20 7 19 1
21 4 20 2
22 6 20 ar
@<TRIPOS>SUBSTRUCTURE
1	RES1	1	GROUP	1 ****	RES
