# created with PyMOL 2.5.2
@<TRIPOS>MOLECULE
CDK6_6H0G_E3ligase
20 22 1                 
SMALL
USER_CHARGES
@<TRIPOS>ATOM
1	  O3	2.784	53.764	-82.847	O.2	1	RES1	0.000	
2	  O4	3.717	49.681	-77.417	O.2	1	RES1	0.000	
3	  O5	0.196	50.445	-80.168	O.2	1	RES1	0.000	
4	  N6	1.968	54.457	-85.589	N.pl3	1	RES1	0.000	
5	  O6	0.427	49.822	-82.231	O.2	1	RES1	0.000	
6	  N7	1.709	51.796	-82.093	N.2	1	RES1	0.000	
7	  N8	1.984	50.076	-78.848	N.pl3	1	RES1	0.000	
8	 C23	1.335	53.217	-85.454	C.2	1	RES1	0.000	
9	 C24	0.550	52.653	-86.470	C.2	1	RES1	0.000	
10	 C25	-0.157	51.477	-86.295	C.2	1	RES1	0.000	
11	 C26	-0.087	50.766	-85.080	C.2	1	RES1	0.000	
12	 C27	0.666	51.315	-84.073	C.2	1	RES1	0.000	
13	 C28	1.347	52.504	-84.258	C.2	1	RES1	0.000	
14	 C29	2.036	52.803	-82.973	C.2	1	RES1	0.000	
15	 C30	2.211	51.653	-80.749	C.3	1	RES1	0.000	
16	 C31	3.722	51.253	-80.701	C.3	1	RES1	0.000	
17	 C32	4.160	51.169	-79.236	C.3	1	RES1	0.000	
18	 C33	3.297	50.222	-78.429	C.2	1	RES1	0.000	
19	 C34	1.367	50.655	-79.945	C.2	1	RES1	0.000	
20	 C35	0.892	50.867	-82.709	C.2	1	RES1	0.000	
@<TRIPOS>BOND
1 4 8 1
2 8 9 ar
3 8 13 ar
4 9 10 ar
5 10 11 ar
6 11 12 ar
7 12 13 ar
8 12 20 ar
9 13 14 ar
10 1 14 2
11 6 14 ar
12 6 15 1
13 15 16 1
14 15 19 1
15 16 17 1
16 17 18 1
17 2 18 2
18 7 18 1
19 3 19 2
20 7 19 1
21 5 20 2
22 6 20 ar
@<TRIPOS>SUBSTRUCTURE
1	RES1	1	GROUP	1 ****	RES
