# created with PyMOL 2.5.2
@<TRIPOS>MOLECULE
CDK6_7BQU_E3ligase
19 21 1                 
SMALL
USER_CHARGES
@<TRIPOS>ATOM
1	  O2	27.405	17.208	11.968	O.2	1	RES1	0.000	
2	  O3	26.349	20.315	17.878	O.2	1	RES1	0.000	
3	  O4	23.723	19.614	14.280	O.2	1	RES1	0.000	
4	  O5	23.101	17.698	13.638	O.2	1	RES1	0.000	
5	  N6	25.405	17.695	13.157	N.2	1	RES1	0.000	
6	  N7	25.079	19.883	16.097	N.pl3	1	RES1	0.000	
7	 C24	25.552	15.490	10.251	C.2	1	RES1	0.000	
8	 C25	24.471	14.836	9.648	C.2	1	RES1	0.000	
9	 C26	23.171	14.975	10.179	C.2	1	RES1	0.000	
10	 C27	22.948	15.793	11.276	C.2	1	RES1	0.000	
11	 C28	24.013	16.447	11.848	C.2	1	RES1	0.000	
12	 C29	25.295	16.305	11.349	C.2	1	RES1	0.000	
13	 C30	26.204	17.115	12.174	C.2	1	RES1	0.000	
14	 C31	25.925	18.616	14.137	C.3	1	RES1	0.000	
15	 C32	26.840	17.966	15.187	C.3	1	RES1	0.000	
16	 C33	27.372	19.020	16.123	C.3	1	RES1	0.000	
17	 C34	26.250	19.765	16.802	C.2	1	RES1	0.000	
18	 C35	24.804	19.368	14.840	C.2	1	RES1	0.000	
19	 C36	24.086	17.344	13.007	C.2	1	RES1	0.000	
@<TRIPOS>BOND
1 1 13 2
2 2 17 2
3 7 8 ar
4 7 12 ar
5 8 9 ar
6 9 10 ar
7 10 11 ar
8 11 12 ar
9 11 19 ar
10 12 13 ar
11 5 13 ar
12 5 14 1
13 14 15 1
14 14 18 1
15 15 16 1
16 16 17 1
17 6 17 1
18 3 18 2
19 6 18 1
20 4 19 2
21 5 19 ar
@<TRIPOS>SUBSTRUCTURE
1	RES1	1	GROUP	1 ****	RES
