# created with PyMOL 2.5.2
@<TRIPOS>MOLECULE
CDK6_7BQU_E3ligase
19 21 1                 
SMALL
USER_CHARGES
@<TRIPOS>ATOM
1	  O2	27.391	17.206	11.962	O.2	1	RES1	0.000	
2	  O3	26.364	20.302	17.902	O.2	1	RES1	0.000	
3	  O4	23.723	19.611	14.284	O.2	1	RES1	0.000	
4	  O5	23.106	17.690	13.645	O.2	1	RES1	0.000	
5	  N6	25.413	17.693	13.146	N.2	1	RES1	0.000	
6	  N7	25.049	19.889	16.070	N.pl3	1	RES1	0.000	
7	 C25	25.574	15.496	10.244	C.2	1	RES1	0.000	
8	 C26	24.460	14.840	9.667	C.2	1	RES1	0.000	
9	 C27	23.177	14.972	10.187	C.2	1	RES1	0.000	
10	 C28	22.929	15.804	11.285	C.2	1	RES1	0.000	
11	 C29	24.013	16.451	11.849	C.2	1	RES1	0.000	
12	 C30	25.308	16.283	11.338	C.2	1	RES1	0.000	
13	 C31	26.202	17.116	12.146	C.2	1	RES1	0.000	
14	 C32	25.942	18.627	14.150	C.3	1	RES1	0.000	
15	 C33	26.859	17.963	15.179	C.3	1	RES1	0.000	
16	 C34	27.372	19.020	16.148	C.3	1	RES1	0.000	
17	 C35	26.234	19.769	16.823	C.2	1	RES1	0.000	
18	 C36	24.817	19.378	14.817	C.2	1	RES1	0.000	
19	 C37	24.061	17.341	12.998	C.2	1	RES1	0.000	
@<TRIPOS>BOND
1 1 13 2
2 2 17 2
3 7 8 ar
4 7 12 ar
5 8 9 ar
6 9 10 ar
7 10 11 ar
8 11 12 ar
9 11 19 ar
10 12 13 ar
11 5 13 ar
12 5 14 1
13 14 15 1
14 14 18 1
15 15 16 1
16 16 17 1
17 6 17 1
18 3 18 2
19 6 18 1
20 4 19 2
21 5 19 ar
@<TRIPOS>SUBSTRUCTURE
1	RES1	1	GROUP	1 ****	RES
