# created with PyMOL 2.5.2
@<TRIPOS>MOLECULE
BRD4_6H0G_E3ligase
20 22 1                 
SMALL
USER_CHARGES
@<TRIPOS>ATOM
1	  N3	2.101	54.377	-85.614	N.pl3	1	RES1	0.000	
2	  N4	1.768	51.722	-82.150	N.2	1	RES1	0.000	
3	  O4	2.793	53.736	-82.803	O.2	1	RES1	0.000	
4	  N5	2.016	50.048	-78.868	N.pl3	1	RES1	0.000	
5	  O5	3.673	49.734	-77.373	O.2	1	RES1	0.000	
6	  O6	0.237	50.375	-80.252	O.2	1	RES1	0.000	
7	  O7	0.362	49.818	-82.257	O.2	1	RES1	0.000	
8	 C18	1.299	53.239	-85.415	C.2	1	RES1	0.000	
9	 C19	0.522	52.707	-86.458	C.2	1	RES1	0.000	
10	 C20	-0.210	51.505	-86.306	C.2	1	RES1	0.000	
11	 C21	-0.185	50.830	-85.086	C.2	1	RES1	0.000	
12	 C22	0.611	51.336	-84.086	C.2	1	RES1	0.000	
13	 C23	1.357	52.478	-84.257	C.2	1	RES1	0.000	
14	 C24	2.073	52.749	-83.001	C.2	1	RES1	0.000	
15	 C25	2.258	51.612	-80.768	C.3	1	RES1	0.000	
16	 C26	3.739	51.304	-80.630	C.3	1	RES1	0.000	
17	 C27	4.156	51.281	-79.159	C.3	1	RES1	0.000	
18	 C28	3.277	50.282	-78.379	C.2	1	RES1	0.000	
19	 C29	1.416	50.631	-79.967	C.2	1	RES1	0.000	
20	 C30	0.863	50.830	-82.736	C.2	1	RES1	0.000	
@<TRIPOS>BOND
1 1 8 1
2 8 9 ar
3 8 13 ar
4 9 10 ar
5 10 11 ar
6 11 12 ar
7 12 13 ar
8 12 20 ar
9 13 14 ar
10 2 14 ar
11 3 14 2
12 2 15 1
13 15 16 1
14 15 19 1
15 16 17 1
16 17 18 1
17 4 18 1
18 5 18 2
19 4 19 1
20 6 19 2
21 2 20 ar
22 7 20 2
@<TRIPOS>SUBSTRUCTURE
1	RES1	1	GROUP	1 ****	RES
