# created with PyMOL 2.5.2
@<TRIPOS>MOLECULE
ALK_6H0G_E3ligase
20 22 1                 
SMALL
USER_CHARGES
@<TRIPOS>ATOM
1	  N7	1.949	54.465	-85.582	N.pl3	1	RES1	0.000	
2	  O7	2.771	53.798	-82.819	O.2	1	RES1	0.000	
3	  N8	1.692	51.791	-82.090	N.2	1	RES1	0.000	
4	  O8	3.734	49.663	-77.443	O.2	1	RES1	0.000	
5	  N9	1.992	50.100	-78.833	N.pl3	1	RES1	0.000	
6	  O9	0.173	50.498	-80.152	O.2	1	RES1	0.000	
7	 O10	0.454	49.797	-82.266	O.2	1	RES1	0.000	
8	 C35	1.329	53.189	-85.444	C.2	1	RES1	0.000	
9	 C36	0.545	52.682	-86.480	C.2	1	RES1	0.000	
10	 C37	-0.121	51.442	-86.314	C.2	1	RES1	0.000	
11	 C38	-0.081	50.767	-85.094	C.2	1	RES1	0.000	
12	 C39	0.682	51.323	-84.079	C.2	1	RES1	0.000	
13	 C40	1.331	52.515	-84.223	C.2	1	RES1	0.000	
14	 C41	2.033	52.797	-82.970	C.2	1	RES1	0.000	
15	 C42	2.210	51.639	-80.728	C.3	1	RES1	0.000	
16	 C43	3.708	51.222	-80.711	C.3	1	RES1	0.000	
17	 C44	4.163	51.148	-79.273	C.3	1	RES1	0.000	
18	 C45	3.302	50.217	-78.436	C.2	1	RES1	0.000	
19	 C46	1.362	50.690	-79.911	C.2	1	RES1	0.000	
20	 C47	0.897	50.854	-82.717	C.2	1	RES1	0.000	
@<TRIPOS>BOND
1 7 20 2
2 1 8 1
3 8 9 ar
4 8 13 ar
5 9 10 ar
6 10 11 ar
7 11 12 ar
8 12 13 ar
9 12 20 ar
10 13 14 ar
11 2 14 2
12 3 14 ar
13 3 15 1
14 15 16 1
15 15 19 1
16 16 17 1
17 17 18 1
18 4 18 2
19 5 18 1
20 5 19 1
21 6 19 2
22 3 20 ar
@<TRIPOS>SUBSTRUCTURE
1	RES1	1	GROUP	1 ****	RES
