# created with PyMOL 2.5.2
@<TRIPOS>MOLECULE
EGFR_6H0G_E3ligase
20 22 1                 
SMALL
USER_CHARGES
@<TRIPOS>ATOM
1	  O5	2.835	53.721	-82.841	O.2	1	RES1	0.000	
2	  O6	3.665	49.691	-77.396	O.3	1	RES1	0.000	
3	  N7	1.987	54.449	-85.585	N.pl3	1	RES1	0.000	
4	  O7	0.228	50.428	-80.233	O.2	1	RES1	0.000	
5	  N8	1.750	51.762	-82.116	N.2	1	RES1	0.000	
6	  O8	0.426	49.830	-82.236	O.2	1	RES1	0.000	
7	  N9	1.992	50.071	-78.880	N.pl3	1	RES1	0.000	
8	 C34	1.345	53.189	-85.462	C.2	1	RES1	0.000	
9	 C35	0.519	52.684	-86.465	C.2	1	RES1	0.000	
10	 C36	-0.206	51.493	-86.280	C.2	1	RES1	0.000	
11	 C37	-0.147	50.791	-85.072	C.2	1	RES1	0.000	
12	 C38	0.637	51.318	-84.056	C.2	1	RES1	0.000	
13	 C39	1.361	52.521	-84.245	C.2	1	RES1	0.000	
14	 C40	2.060	52.779	-83.018	C.2	1	RES1	0.000	
15	 C41	2.257	51.632	-80.748	C.3	1	RES1	0.000	
16	 C42	3.736	51.267	-80.641	C.3	1	RES1	0.000	
17	 C43	4.145	51.208	-79.190	C.3	1	RES1	0.000	
18	 C44	3.259	50.251	-78.425	C.3	1	RES1	0.000	
19	 C45	1.386	50.645	-79.965	C.2	1	RES1	0.000	
20	 C46	0.892	50.863	-82.716	C.2	1	RES1	0.000	
@<TRIPOS>BOND
1 3 8 1
2 8 9 ar
3 8 13 ar
4 9 10 ar
5 10 11 ar
6 11 12 ar
7 12 13 ar
8 12 20 ar
9 13 14 ar
10 1 14 2
11 5 14 ar
12 5 15 1
13 15 16 1
14 15 19 1
15 16 17 1
16 17 18 1
17 2 18 1
18 7 18 1
19 4 19 2
20 7 19 1
21 5 20 ar
22 6 20 2
@<TRIPOS>SUBSTRUCTURE
1	RES1	1	GROUP	1 ****	RES
