# created with PyMOL 2.5.2
@<TRIPOS>MOLECULE
EGFR_6H0G_E3ligase
20 22 1                 
SMALL
USER_CHARGES
@<TRIPOS>ATOM
1	  O5	2.814	53.755	-82.834	O.2	1	RES1	0.000	
2	  O6	3.698	49.676	-77.420	O.2	1	RES1	0.000	
3	  N7	1.970	54.463	-85.606	N.pl3	1	RES1	0.000	
4	  O7	0.181	50.475	-80.171	O.2	1	RES1	0.000	
5	  N8	1.726	51.787	-82.128	N.2	1	RES1	0.000	
6	  O8	0.455	49.794	-82.261	O.2	1	RES1	0.000	
7	  N9	1.978	50.074	-78.851	N.pl3	1	RES1	0.000	
8	 C34	1.333	53.195	-85.453	C.2	1	RES1	0.000	
9	 C35	0.531	52.658	-86.467	C.2	1	RES1	0.000	
10	 C36	-0.195	51.481	-86.288	C.2	1	RES1	0.000	
11	 C37	-0.102	50.790	-85.078	C.2	1	RES1	0.000	
12	 C38	0.654	51.333	-84.055	C.2	1	RES1	0.000	
13	 C39	1.348	52.515	-84.234	C.2	1	RES1	0.000	
14	 C40	2.065	52.791	-83.003	C.2	1	RES1	0.000	
15	 C41	2.250	51.640	-80.737	C.3	1	RES1	0.000	
16	 C42	3.708	51.244	-80.669	C.3	1	RES1	0.000	
17	 C43	4.141	51.167	-79.227	C.3	1	RES1	0.000	
18	 C44	3.283	50.233	-78.438	C.2	1	RES1	0.000	
19	 C45	1.370	50.672	-79.935	C.2	1	RES1	0.000	
20	 C46	0.917	50.849	-82.712	C.2	1	RES1	0.000	
@<TRIPOS>BOND
1 3 8 1
2 8 9 ar
3 8 13 ar
4 9 10 ar
5 10 11 ar
6 11 12 ar
7 12 13 ar
8 12 20 ar
9 13 14 ar
10 1 14 2
11 5 14 ar
12 5 15 1
13 15 16 1
14 15 19 1
15 16 17 1
16 17 18 1
17 2 18 2
18 7 18 1
19 4 19 2
20 7 19 1
21 5 20 ar
22 6 20 2
@<TRIPOS>SUBSTRUCTURE
1	RES1	1	GROUP	1 ****	RES
