# created with PyMOL 2.5.2
@<TRIPOS>MOLECULE
CDK2_7BQU_E3ligase
19 21 1                 
SMALL
USER_CHARGES
@<TRIPOS>ATOM
1	  N1	25.407	17.694	13.135	N.2	1	RES1	0.000	
2	  N2	25.073	19.859	16.074	N.pl3	1	RES1	0.000	
3	  C3	25.564	15.502	10.260	C.2	1	RES1	0.000	
4	  O3	27.399	17.213	11.948	O.2	1	RES1	0.000	
5	  C4	24.484	14.834	9.670	C.2	1	RES1	0.000	
6	  O4	26.371	20.309	17.898	O.2	1	RES1	0.000	
7	  C5	23.172	14.970	10.178	C.2	1	RES1	0.000	
8	  O5	23.730	19.605	14.309	O.2	1	RES1	0.000	
9	  C6	22.930	15.796	11.289	C.2	1	RES1	0.000	
10	  O6	23.102	17.712	13.624	O.2	1	RES1	0.000	
11	  C7	24.018	16.441	11.871	C.2	1	RES1	0.000	
12	  C8	25.287	16.295	11.344	C.2	1	RES1	0.000	
13	  C9	26.183	17.122	12.148	C.2	1	RES1	0.000	
14	 C10	25.940	18.627	14.133	C.3	1	RES1	0.000	
15	 C11	26.857	17.975	15.163	C.3	1	RES1	0.000	
16	 C12	27.362	19.027	16.157	C.3	1	RES1	0.000	
17	 C13	26.244	19.768	16.819	C.2	1	RES1	0.000	
18	 C14	24.785	19.376	14.827	C.2	1	RES1	0.000	
19	 C15	24.086	17.329	12.994	C.2	1	RES1	0.000	
@<TRIPOS>BOND
1 1 13 ar
2 1 14 1
3 1 19 ar
4 3 5 ar
5 3 12 ar
6 4 13 2
7 5 7 ar
8 7 9 ar
9 9 11 ar
10 11 12 ar
11 12 13 ar
12 14 15 1
13 14 18 1
14 15 16 1
15 16 17 1
16 2 17 1
17 6 17 2
18 2 18 1
19 8 18 2
20 10 19 2
21 11 19 ar
@<TRIPOS>SUBSTRUCTURE
1	RES1	1	GROUP	1 ****	RES
