# created with PyMOL 2.5.2
@<TRIPOS>MOLECULE
CDK2_7BQU_E3ligase
19 21 1                 
SMALL
USER_CHARGES
@<TRIPOS>ATOM
1	  N1	25.415	17.685	13.159	N.2	1	RES1	0.000	
2	  N2	25.094	19.906	16.063	N.pl3	1	RES1	0.000	
3	  C3	25.539	15.504	10.241	C.2	1	RES1	0.000	
4	  O3	27.393	17.222	11.973	O.2	1	RES1	0.000	
5	  C4	24.462	14.838	9.649	C.2	1	RES1	0.000	
6	  O4	26.355	20.302	17.891	O.2	1	RES1	0.000	
7	  C5	23.187	14.976	10.184	C.2	1	RES1	0.000	
8	  O5	23.740	19.621	14.263	O.2	1	RES1	0.000	
9	  C6	22.928	15.783	11.275	C.2	1	RES1	0.000	
10	  O6	23.110	17.681	13.651	O.2	1	RES1	0.000	
11	  C7	24.011	16.441	11.844	C.2	1	RES1	0.000	
12	  C8	25.296	16.314	11.351	C.2	1	RES1	0.000	
13	  C9	26.197	17.104	12.170	C.2	1	RES1	0.000	
14	 C10	25.933	18.622	14.155	C.3	1	RES1	0.000	
15	 C11	26.845	17.963	15.185	C.3	1	RES1	0.000	
16	 C12	27.356	18.998	16.165	C.3	1	RES1	0.000	
17	 C13	26.245	19.790	16.821	C.2	1	RES1	0.000	
18	 C14	24.808	19.376	14.815	C.2	1	RES1	0.000	
19	 C15	24.080	17.326	12.985	C.2	1	RES1	0.000	
@<TRIPOS>BOND
1 1 13 ar
2 1 14 1
3 1 19 ar
4 3 5 ar
5 3 12 ar
6 4 13 2
7 5 7 ar
8 7 9 ar
9 9 11 ar
10 11 12 ar
11 12 13 ar
12 14 15 1
13 14 18 1
14 15 16 1
15 16 17 1
16 2 17 1
17 6 17 2
18 2 18 1
19 8 18 2
20 10 19 2
21 11 19 ar
@<TRIPOS>SUBSTRUCTURE
1	RES1	1	GROUP	1 ****	RES
