# created with PyMOL 2.5.2
@<TRIPOS>MOLECULE
CDK2_6H0G_E3ligase
20 22 1                 
SMALL
USER_CHARGES
@<TRIPOS>ATOM
1	  O5	2.846	53.746	-82.839	O.2	1	RES1	0.000	
2	  O6	3.700	49.715	-77.406	O.2	1	RES1	0.000	
3	  N7	1.998	54.426	-85.581	N.pl3	1	RES1	0.000	
4	  O7	0.213	50.431	-80.208	O.2	1	RES1	0.000	
5	  N8	1.723	51.770	-82.103	N.2	1	RES1	0.000	
6	  O8	0.419	49.821	-82.269	O.2	1	RES1	0.000	
7	  N9	1.982	50.064	-78.863	N.pl3	1	RES1	0.000	
8	 C23	1.334	53.209	-85.442	C.2	1	RES1	0.000	
9	 C24	0.525	52.674	-86.468	C.2	1	RES1	0.000	
10	 C25	-0.182	51.481	-86.287	C.2	1	RES1	0.000	
11	 C26	-0.146	50.774	-85.091	C.2	1	RES1	0.000	
12	 C27	0.668	51.342	-84.074	C.2	1	RES1	0.000	
13	 C28	1.328	52.511	-84.253	C.2	1	RES1	0.000	
14	 C29	2.060	52.790	-82.985	C.2	1	RES1	0.000	
15	 C30	2.233	51.632	-80.740	C.3	1	RES1	0.000	
16	 C31	3.716	51.244	-80.675	C.3	1	RES1	0.000	
17	 C32	4.128	51.216	-79.208	C.3	1	RES1	0.000	
18	 C33	3.295	50.236	-78.412	C.2	1	RES1	0.000	
19	 C34	1.380	50.648	-79.961	C.2	1	RES1	0.000	
20	 C35	0.908	50.862	-82.701	C.2	1	RES1	0.000	
@<TRIPOS>BOND
1 3 8 1
2 8 9 ar
3 8 13 ar
4 9 10 ar
5 10 11 ar
6 11 12 ar
7 12 13 ar
8 12 20 ar
9 13 14 ar
10 1 14 2
11 5 14 ar
12 5 15 1
13 15 16 1
14 15 19 1
15 16 17 1
16 17 18 1
17 2 18 2
18 7 18 1
19 4 19 2
20 7 19 1
21 5 20 ar
22 6 20 2
@<TRIPOS>SUBSTRUCTURE
1	RES1	1	GROUP	1 ****	RES
