# created with PyMOL 2.5.2
@<TRIPOS>MOLECULE
BRD2_6H0G_E3ligase
20 22 1                 
SMALL
USER_CHARGES
@<TRIPOS>ATOM
1	  O2	2.799	53.753	-82.825	O.2	1	RES1	0.000	
2	  O3	3.694	49.680	-77.415	O.2	1	RES1	0.000	
3	  O4	0.206	50.430	-80.199	O.2	1	RES1	0.000	
4	  O5	0.445	49.837	-82.242	O.2	1	RES1	0.000	
5	  N6	1.985	54.445	-85.609	N.pl3	1	RES1	0.000	
6	  N7	1.720	51.791	-82.106	N.2	1	RES1	0.000	
7	  N8	2.007	50.070	-78.870	N.pl3	1	RES1	0.000	
8	 C18	1.337	53.206	-85.443	C.2	1	RES1	0.000	
9	 C19	0.520	52.662	-86.466	C.2	1	RES1	0.000	
10	 C20	-0.197	51.465	-86.297	C.2	1	RES1	0.000	
11	 C21	-0.113	50.786	-85.096	C.2	1	RES1	0.000	
12	 C22	0.660	51.332	-84.067	C.2	1	RES1	0.000	
13	 C23	1.363	52.502	-84.233	C.2	1	RES1	0.000	
14	 C24	2.052	52.795	-82.991	C.2	1	RES1	0.000	
15	 C25	2.236	51.647	-80.722	C.3	1	RES1	0.000	
16	 C26	3.715	51.250	-80.658	C.3	1	RES1	0.000	
17	 C27	4.143	51.178	-79.222	C.3	1	RES1	0.000	
18	 C28	3.272	50.237	-78.430	C.2	1	RES1	0.000	
19	 C29	1.380	50.659	-79.949	C.2	1	RES1	0.000	
20	 C30	0.899	50.869	-82.726	C.2	1	RES1	0.000	
@<TRIPOS>BOND
1 1 14 2
2 5 8 1
3 8 9 ar
4 8 13 ar
5 9 10 ar
6 10 11 ar
7 11 12 ar
8 12 13 ar
9 12 20 ar
10 13 14 ar
11 6 14 ar
12 6 15 1
13 15 16 1
14 15 19 1
15 16 17 1
16 17 18 1
17 2 18 2
18 7 18 1
19 3 19 2
20 7 19 1
21 4 20 2
22 6 20 ar
@<TRIPOS>SUBSTRUCTURE
1	RES1	1	GROUP	1 ****	RES
