# created with PyMOL 2.5.2
@<TRIPOS>MOLECULE
CDK2_6H0G_E3ligase
20 22 1                 
SMALL
USER_CHARGES
@<TRIPOS>ATOM
1	  O5	2.818	53.738	-82.838	O.2	1	RES1	0.000	
2	  O6	3.691	49.685	-77.418	O.2	1	RES1	0.000	
3	  N7	1.984	54.428	-85.594	N.pl3	1	RES1	0.000	
4	  O7	0.217	50.418	-80.228	O.2	1	RES1	0.000	
5	  N8	1.726	51.796	-82.110	N.2	1	RES1	0.000	
6	  O8	0.432	49.826	-82.254	O.2	1	RES1	0.000	
7	  N9	1.985	50.065	-78.881	N.pl3	1	RES1	0.000	
8	 C25	1.333	53.208	-85.447	C.2	1	RES1	0.000	
9	 C26	0.516	52.669	-86.457	C.2	1	RES1	0.000	
10	 C27	-0.188	51.472	-86.283	C.2	1	RES1	0.000	
11	 C28	-0.116	50.796	-85.067	C.2	1	RES1	0.000	
12	 C29	0.665	51.342	-84.067	C.2	1	RES1	0.000	
13	 C30	1.356	52.495	-84.253	C.2	1	RES1	0.000	
14	 C31	2.057	52.795	-83.009	C.2	1	RES1	0.000	
15	 C32	2.241	51.652	-80.733	C.3	1	RES1	0.000	
16	 C33	3.699	51.250	-80.651	C.3	1	RES1	0.000	
17	 C34	4.136	51.195	-79.213	C.3	1	RES1	0.000	
18	 C35	3.294	50.243	-78.415	C.2	1	RES1	0.000	
19	 C36	1.379	50.658	-79.947	C.2	1	RES1	0.000	
20	 C37	0.902	50.863	-82.700	C.2	1	RES1	0.000	
@<TRIPOS>BOND
1 3 8 1
2 8 9 ar
3 8 13 ar
4 9 10 ar
5 10 11 ar
6 11 12 ar
7 12 13 ar
8 12 20 ar
9 13 14 ar
10 1 14 2
11 5 14 ar
12 5 15 1
13 15 16 1
14 15 19 1
15 16 17 1
16 17 18 1
17 2 18 2
18 7 18 1
19 4 19 2
20 7 19 1
21 5 20 ar
22 6 20 2
@<TRIPOS>SUBSTRUCTURE
1	RES1	1	GROUP	1 ****	RES
