# created with PyMOL 2.5.2
@<TRIPOS>MOLECULE
CDK2_6H0G_E3ligase
20 22 1                 
SMALL
USER_CHARGES
@<TRIPOS>ATOM
1	  O5	2.827	53.776	-82.856	O.2	1	RES1	0.000	
2	  O6	3.678	49.619	-77.439	O.3	1	RES1	0.000	
3	  N7	1.953	54.441	-85.633	N.pl3	1	RES1	0.000	
4	  O7	0.207	50.426	-80.238	O.2	1	RES1	0.000	
5	  N8	1.746	51.835	-82.086	N.2	1	RES1	0.000	
6	  O8	0.454	49.858	-82.206	O.2	1	RES1	0.000	
7	  N9	1.964	50.043	-78.895	N.pl3	1	RES1	0.000	
8	 C27	1.322	53.193	-85.467	C.2	1	RES1	0.000	
9	 C28	0.522	52.651	-86.469	C.2	1	RES1	0.000	
10	 C29	-0.188	51.446	-86.262	C.2	1	RES1	0.000	
11	 C30	-0.110	50.770	-85.057	C.2	1	RES1	0.000	
12	 C31	0.662	51.329	-84.041	C.2	1	RES1	0.000	
13	 C32	1.346	52.521	-84.239	C.2	1	RES1	0.000	
14	 C33	2.072	52.818	-83.014	C.2	1	RES1	0.000	
15	 C34	2.238	51.693	-80.722	C.3	1	RES1	0.000	
16	 C35	3.714	51.275	-80.646	C.3	1	RES1	0.000	
17	 C36	4.141	51.182	-79.189	C.3	1	RES1	0.000	
18	 C37	3.267	50.185	-78.446	C.3	1	RES1	0.000	
19	 C38	1.385	50.650	-79.963	C.2	1	RES1	0.000	
20	 C39	0.922	50.883	-82.699	C.2	1	RES1	0.000	
@<TRIPOS>BOND
1 3 8 1
2 8 9 ar
3 8 13 ar
4 9 10 ar
5 10 11 ar
6 11 12 ar
7 12 13 ar
8 12 20 ar
9 13 14 ar
10 1 14 2
11 5 14 ar
12 5 15 1
13 15 16 1
14 15 19 1
15 16 17 1
16 17 18 1
17 2 18 1
18 7 18 1
19 4 19 2
20 7 19 1
21 5 20 ar
22 6 20 2
@<TRIPOS>SUBSTRUCTURE
1	RES1	1	GROUP	1 ****	RES
