# created with PyMOL 2.5.2
@<TRIPOS>MOLECULE
CDK2_7BQU_E3ligase
19 21 1                 
SMALL
USER_CHARGES
@<TRIPOS>ATOM
1	  O7	23.129	17.686	13.682	O.2	1	RES1	0.000	
2	  N8	25.441	17.707	13.127	N.2	1	RES1	0.000	
3	  O8	26.298	20.277	17.916	O.2	1	RES1	0.000	
4	  N9	25.056	19.899	16.052	N.pl3	1	RES1	0.000	
5	  O9	23.759	19.643	14.227	O.2	1	RES1	0.000	
6	 O10	27.407	17.224	11.937	O.2	1	RES1	0.000	
7	 C25	22.923	15.792	11.317	C.2	1	RES1	0.000	
8	 C26	23.161	14.975	10.181	C.2	1	RES1	0.000	
9	 C27	24.446	14.845	9.664	C.2	1	RES1	0.000	
10	 C28	25.546	15.511	10.218	C.2	1	RES1	0.000	
11	 C29	25.276	16.304	11.330	C.2	1	RES1	0.000	
12	 C30	24.030	16.442	11.875	C.2	1	RES1	0.000	
13	 C31	24.099	17.342	13.007	C.2	1	RES1	0.000	
14	 C32	25.983	18.617	14.152	C.3	1	RES1	0.000	
15	 C33	26.856	17.959	15.199	C.3	1	RES1	0.000	
16	 C34	27.342	18.995	16.199	C.3	1	RES1	0.000	
17	 C35	26.209	19.760	16.817	C.2	1	RES1	0.000	
18	 C36	24.828	19.374	14.785	C.2	1	RES1	0.000	
19	 C37	26.206	17.101	12.156	C.2	1	RES1	0.000	
@<TRIPOS>BOND
1 6 19 2
2 7 8 ar
3 7 12 ar
4 8 9 ar
5 9 10 ar
6 10 11 ar
7 11 12 ar
8 11 19 ar
9 12 13 ar
10 1 13 2
11 2 13 ar
12 2 14 1
13 14 15 1
14 14 18 1
15 15 16 1
16 16 17 1
17 3 17 2
18 4 17 1
19 4 18 1
20 5 18 2
21 2 19 ar
@<TRIPOS>SUBSTRUCTURE
1	RES1	1	GROUP	1 ****	RES
