# created with PyMOL 2.5.2
@<TRIPOS>MOLECULE
CDK2_7BQU_E3ligase
19 21 1                 
SMALL
USER_CHARGES
@<TRIPOS>ATOM
1	  O7	27.382	17.220	11.964	O.2	1	RES1	0.000	
2	  N8	25.410	17.707	13.136	N.2	1	RES1	0.000	
3	  O8	26.362	20.278	17.903	O.2	1	RES1	0.000	
4	  N9	25.085	19.901	16.078	N.pl3	1	RES1	0.000	
5	  O9	23.735	19.633	14.287	O.2	1	RES1	0.000	
6	 O10	23.114	17.702	13.644	O.2	1	RES1	0.000	
7	 C27	25.555	15.494	10.236	C.2	1	RES1	0.000	
8	 C28	24.488	14.829	9.651	C.2	1	RES1	0.000	
9	 C29	23.187	14.972	10.187	C.2	1	RES1	0.000	
10	 C30	22.925	15.765	11.302	C.2	1	RES1	0.000	
11	 C31	24.025	16.439	11.857	C.2	1	RES1	0.000	
12	 C32	25.278	16.311	11.333	C.2	1	RES1	0.000	
13	 C33	26.182	17.107	12.170	C.2	1	RES1	0.000	
14	 C34	25.951	18.639	14.134	C.3	1	RES1	0.000	
15	 C35	26.846	17.949	15.188	C.3	1	RES1	0.000	
16	 C36	27.359	19.008	16.144	C.3	1	RES1	0.000	
17	 C37	26.241	19.766	16.801	C.2	1	RES1	0.000	
18	 C38	24.783	19.398	14.833	C.2	1	RES1	0.000	
19	 C39	24.086	17.336	12.989	C.2	1	RES1	0.000	
@<TRIPOS>BOND
1 6 19 2
2 7 8 ar
3 7 12 ar
4 8 9 ar
5 9 10 ar
6 10 11 ar
7 11 12 ar
8 11 19 ar
9 12 13 ar
10 1 13 2
11 2 13 ar
12 2 14 1
13 14 15 1
14 14 18 1
15 15 16 1
16 16 17 1
17 3 17 2
18 4 17 1
19 4 18 1
20 5 18 2
21 2 19 ar
@<TRIPOS>SUBSTRUCTURE
1	RES1	1	GROUP	1 ****	RES
