# created with PyMOL 2.5.2
@<TRIPOS>MOLECULE
CDK2_7BQU_E3ligase
19 21 1                 
SMALL
USER_CHARGES
@<TRIPOS>ATOM
1	  O7	27.384	17.189	11.965	O.2	1	RES1	0.000	
2	  N8	25.420	17.681	13.157	N.2	1	RES1	0.000	
3	  O8	26.369	20.339	17.887	O.2	1	RES1	0.000	
4	  N9	25.082	19.862	16.095	N.pl3	1	RES1	0.000	
5	  O9	23.709	19.595	14.308	O.2	1	RES1	0.000	
6	 O10	23.094	17.711	13.638	O.2	1	RES1	0.000	
7	 C29	25.572	15.490	10.232	C.2	1	RES1	0.000	
8	 C30	24.483	14.840	9.655	C.2	1	RES1	0.000	
9	 C31	23.179	14.994	10.157	C.2	1	RES1	0.000	
10	 C32	22.925	15.811	11.268	C.2	1	RES1	0.000	
11	 C33	24.034	16.444	11.851	C.2	1	RES1	0.000	
12	 C34	25.290	16.296	11.366	C.2	1	RES1	0.000	
13	 C35	26.181	17.096	12.185	C.2	1	RES1	0.000	
14	 C36	25.926	18.621	14.144	C.3	1	RES1	0.000	
15	 C37	26.843	17.956	15.196	C.3	1	RES1	0.000	
16	 C38	27.391	19.026	16.147	C.3	1	RES1	0.000	
17	 C39	26.254	19.808	16.784	C.2	1	RES1	0.000	
18	 C40	24.789	19.361	14.821	C.2	1	RES1	0.000	
19	 C41	24.070	17.336	12.985	C.2	1	RES1	0.000	
@<TRIPOS>BOND
1 6 19 2
2 7 8 ar
3 7 12 ar
4 8 9 ar
5 9 10 ar
6 10 11 ar
7 11 12 ar
8 11 19 ar
9 12 13 ar
10 1 13 2
11 2 13 ar
12 2 14 1
13 14 15 1
14 14 18 1
15 15 16 1
16 16 17 1
17 3 17 2
18 4 17 1
19 4 18 1
20 5 18 2
21 2 19 ar
@<TRIPOS>SUBSTRUCTURE
1	RES1	1	GROUP	1 ****	RES
