# created with PyMOL 2.5.2
@<TRIPOS>MOLECULE
CDK2_7BQU_E3ligase
19 21 1                 
SMALL
USER_CHARGES
@<TRIPOS>ATOM
1	  N1	25.410	17.723	13.140	N.2	1	RES1	0.000	
2	  N2	25.077	19.871	16.084	N.pl3	1	RES1	0.000	
3	  C3	25.553	15.504	10.260	C.2	1	RES1	0.000	
4	  O3	27.379	17.209	11.932	O.2	1	RES1	0.000	
5	  C4	24.469	14.837	9.667	C.2	1	RES1	0.000	
6	  O4	26.342	20.274	17.923	O.2	1	RES1	0.000	
7	  C5	23.173	14.965	10.184	C.2	1	RES1	0.000	
8	  O5	23.733	19.619	14.270	O.2	1	RES1	0.000	
9	  C6	22.928	15.765	11.296	C.2	1	RES1	0.000	
10	  O6	23.118	17.696	13.644	O.2	1	RES1	0.000	
11	  C7	24.011	16.436	11.832	C.2	1	RES1	0.000	
12	  C8	25.303	16.296	11.368	C.2	1	RES1	0.000	
13	  C9	26.205	17.114	12.143	C.2	1	RES1	0.000	
14	 C10	25.954	18.629	14.129	C.3	1	RES1	0.000	
15	 C11	26.838	17.966	15.173	C.3	1	RES1	0.000	
16	 C12	27.385	19.020	16.141	C.3	1	RES1	0.000	
17	 C13	26.236	19.776	16.824	C.2	1	RES1	0.000	
18	 C14	24.795	19.399	14.834	C.2	1	RES1	0.000	
19	 C15	24.084	17.352	12.995	C.2	1	RES1	0.000	
@<TRIPOS>BOND
1 1 13 ar
2 1 14 1
3 1 19 ar
4 3 5 ar
5 3 12 ar
6 4 13 2
7 5 7 ar
8 7 9 ar
9 9 11 ar
10 11 12 ar
11 12 13 ar
12 14 15 1
13 14 18 1
14 15 16 1
15 16 17 1
16 2 17 1
17 6 17 2
18 2 18 1
19 8 18 2
20 10 19 2
21 11 19 ar
@<TRIPOS>SUBSTRUCTURE
1	RES1	1	GROUP	1 ****	RES
