# created with PyMOL 2.5.2
@<TRIPOS>MOLECULE
CDK2_7BQU_E3ligase
19 21 1                 
SMALL
USER_CHARGES
@<TRIPOS>ATOM
1	  N8	25.419	17.698	13.131	N.2	1	RES1	0.000	
2	  N9	25.077	19.887	16.071	N.pl3	1	RES1	0.000	
3	 O10	27.373	17.208	11.940	O.2	1	RES1	0.000	
4	 O11	26.330	20.302	17.906	O.2	1	RES1	0.000	
5	 O12	23.744	19.618	14.264	O.2	1	RES1	0.000	
6	 O13	23.133	17.699	13.661	O.2	1	RES1	0.000	
7	 C33	25.552	15.508	10.250	C.2	1	RES1	0.000	
8	 C34	24.481	14.834	9.662	C.2	1	RES1	0.000	
9	 C35	23.175	14.967	10.186	C.2	1	RES1	0.000	
10	 C36	22.923	15.791	11.281	C.2	1	RES1	0.000	
11	 C37	24.019	16.445	11.865	C.2	1	RES1	0.000	
12	 C38	25.281	16.303	11.339	C.2	1	RES1	0.000	
13	 C39	26.194	17.116	12.159	C.2	1	RES1	0.000	
14	 C40	25.947	18.627	14.136	C.3	1	RES1	0.000	
15	 C41	26.848	17.954	15.185	C.3	1	RES1	0.000	
16	 C42	27.367	19.012	16.155	C.3	1	RES1	0.000	
17	 C43	26.240	19.759	16.830	C.2	1	RES1	0.000	
18	 C44	24.801	19.373	14.812	C.2	1	RES1	0.000	
19	 C45	24.089	17.354	13.004	C.2	1	RES1	0.000	
@<TRIPOS>BOND
1 3 13 2
2 4 17 2
3 5 18 2
4 6 19 2
5 7 8 ar
6 7 12 ar
7 8 9 ar
8 9 10 ar
9 10 11 ar
10 11 12 ar
11 11 19 ar
12 12 13 ar
13 1 13 ar
14 1 14 1
15 14 15 1
16 14 18 1
17 15 16 1
18 16 17 1
19 2 17 1
20 2 18 1
21 1 19 ar
@<TRIPOS>SUBSTRUCTURE
1	RES1	1	GROUP	1 ****	RES
