# created with PyMOL 2.5.2
@<TRIPOS>MOLECULE
CDK2_7BQU_E3ligase
19 21 1                 
SMALL
USER_CHARGES
@<TRIPOS>ATOM
1	  N1	25.400	17.714	13.148	N.2	1	RES1	0.000	
2	  N2	25.077	19.885	16.098	N.pl3	1	RES1	0.000	
3	  C3	25.556	15.484	10.231	C.2	1	RES1	0.000	
4	  O3	27.389	17.226	11.953	O.2	1	RES1	0.000	
5	  C4	24.488	14.809	9.666	C.2	1	RES1	0.000	
6	  O4	26.376	20.284	17.914	O.2	1	RES1	0.000	
7	  C5	23.193	14.970	10.187	C.2	1	RES1	0.000	
8	  O5	23.713	19.598	14.289	O.2	1	RES1	0.000	
9	  C6	22.941	15.787	11.279	C.2	1	RES1	0.000	
10	  O6	23.093	17.714	13.637	O.2	1	RES1	0.000	
11	  C7	24.020	16.445	11.856	C.2	1	RES1	0.000	
12	  C8	25.278	16.296	11.345	C.2	1	RES1	0.000	
13	  C9	26.185	17.124	12.164	C.2	1	RES1	0.000	
14	 C10	25.934	18.643	14.128	C.3	1	RES1	0.000	
15	 C11	26.858	17.975	15.182	C.3	1	RES1	0.000	
16	 C12	27.390	19.012	16.144	C.3	1	RES1	0.000	
17	 C13	26.240	19.770	16.789	C.2	1	RES1	0.000	
18	 C14	24.789	19.376	14.848	C.2	1	RES1	0.000	
19	 C15	24.074	17.341	12.980	C.2	1	RES1	0.000	
@<TRIPOS>BOND
1 1 13 ar
2 1 14 1
3 1 19 ar
4 3 5 ar
5 3 12 ar
6 4 13 2
7 5 7 ar
8 7 9 ar
9 9 11 ar
10 11 12 ar
11 12 13 ar
12 14 15 1
13 14 18 1
14 15 16 1
15 16 17 1
16 2 17 1
17 6 17 2
18 2 18 1
19 8 18 2
20 10 19 2
21 11 19 ar
@<TRIPOS>SUBSTRUCTURE
1	RES1	1	GROUP	1 ****	RES
