# created with PyMOL 2.5.2
@<TRIPOS>MOLECULE
CDK2_7BQU_E3ligase
19 21 1                 
SMALL
USER_CHARGES
@<TRIPOS>ATOM
1	  N1	25.420	17.693	13.129	N.2	1	RES1	0.000	
2	  N2	25.072	19.877	16.071	N.pl3	1	RES1	0.000	
3	  C3	25.573	15.516	10.252	C.2	1	RES1	0.000	
4	  O3	27.399	17.221	11.963	O.2	1	RES1	0.000	
5	  C4	24.463	14.828	9.640	C.2	1	RES1	0.000	
6	  O4	26.335	20.303	17.895	O.2	1	RES1	0.000	
7	  C5	23.166	14.985	10.198	C.2	1	RES1	0.000	
8	  O5	23.754	19.609	14.268	O.2	1	RES1	0.000	
9	  C6	22.929	15.777	11.296	C.2	1	RES1	0.000	
10	  O6	23.113	17.702	13.646	O.2	1	RES1	0.000	
11	  C7	24.024	16.443	11.852	C.2	1	RES1	0.000	
12	  C8	25.293	16.295	11.354	C.2	1	RES1	0.000	
13	  C9	26.186	17.123	12.158	C.2	1	RES1	0.000	
14	 C10	25.956	18.633	14.148	C.3	1	RES1	0.000	
15	 C11	26.848	17.964	15.165	C.3	1	RES1	0.000	
16	 C12	27.371	18.994	16.162	C.3	1	RES1	0.000	
17	 C13	26.226	19.773	16.804	C.2	1	RES1	0.000	
18	 C14	24.795	19.367	14.823	C.2	1	RES1	0.000	
19	 C15	24.072	17.352	13.012	C.2	1	RES1	0.000	
@<TRIPOS>BOND
1 1 13 ar
2 1 14 1
3 1 19 ar
4 3 5 ar
5 3 12 ar
6 4 13 2
7 5 7 ar
8 7 9 ar
9 9 11 ar
10 11 12 ar
11 12 13 ar
12 14 15 1
13 14 18 1
14 15 16 1
15 16 17 1
16 2 17 1
17 6 17 2
18 2 18 1
19 8 18 2
20 10 19 2
21 11 19 ar
@<TRIPOS>SUBSTRUCTURE
1	RES1	1	GROUP	1 ****	RES
