# created with PyMOL 2.5.2
@<TRIPOS>MOLECULE
CDK2_6H0G_E3ligase
20 22 1                 
SMALL
USER_CHARGES
@<TRIPOS>ATOM
1	  O4	2.787	53.705	-82.795	O.2	1	RES1	0.000	
2	  O5	3.715	49.772	-77.380	O.2	1	RES1	0.000	
3	  O6	0.252	50.324	-80.259	O.2	1	RES1	0.000	
4	  O7	0.320	49.829	-82.288	O.2	1	RES1	0.000	
5	 N11	2.131	54.356	-85.592	N.pl3	1	RES1	0.000	
6	 N12	1.750	51.711	-82.134	N.2	1	RES1	0.000	
7	 N13	2.037	50.042	-78.879	N.pl3	1	RES1	0.000	
8	 C28	1.330	53.230	-85.412	C.2	1	RES1	0.000	
9	 C29	0.531	52.689	-86.474	C.2	1	RES1	0.000	
10	 C30	-0.202	51.535	-86.309	C.2	1	RES1	0.000	
11	 C31	-0.179	50.822	-85.090	C.2	1	RES1	0.000	
12	 C32	0.638	51.335	-84.086	C.2	1	RES1	0.000	
13	 C33	1.332	52.484	-84.241	C.2	1	RES1	0.000	
14	 C34	2.067	52.757	-82.970	C.2	1	RES1	0.000	
15	 C35	2.217	51.619	-80.764	C.3	1	RES1	0.000	
16	 C36	3.716	51.334	-80.630	C.3	1	RES1	0.000	
17	 C37	4.138	51.317	-79.150	C.3	1	RES1	0.000	
18	 C38	3.297	50.311	-78.397	C.2	1	RES1	0.000	
19	 C39	1.412	50.584	-79.984	C.2	1	RES1	0.000	
20	 C40	0.838	50.836	-82.732	C.2	1	RES1	0.000	
@<TRIPOS>BOND
1 5 8 1
2 6 14 ar
3 6 15 1
4 6 20 ar
5 7 18 1
6 7 19 1
7 8 9 ar
8 8 13 ar
9 9 10 ar
10 10 11 ar
11 11 12 ar
12 12 13 ar
13 12 20 ar
14 13 14 ar
15 1 14 2
16 15 16 1
17 15 19 1
18 16 17 1
19 17 18 1
20 2 18 2
21 3 19 2
22 4 20 2
@<TRIPOS>SUBSTRUCTURE
1	RES1	1	GROUP	1 ****	RES
