# created with PyMOL 2.5.2
@<TRIPOS>MOLECULE
BRD4_6H0G_E3ligase
20 22 1                 
SMALL
USER_CHARGES
@<TRIPOS>ATOM
1	  O2	2.799	53.765	-82.849	O.2	1	RES1	0.000	
2	  O3	3.685	49.634	-77.439	O.3	1	RES1	0.000	
3	  O4	0.206	50.456	-80.241	O.2	1	RES1	0.000	
4	  O5	0.447	49.859	-82.246	O.2	1	RES1	0.000	
5	  N6	1.957	54.443	-85.600	N.pl3	1	RES1	0.000	
6	  N7	1.739	51.824	-82.122	N.2	1	RES1	0.000	
7	  N8	1.975	50.066	-78.878	N.pl3	1	RES1	0.000	
8	 C18	1.332	53.195	-85.446	C.2	1	RES1	0.000	
9	 C19	0.521	52.630	-86.458	C.2	1	RES1	0.000	
10	 C20	-0.174	51.456	-86.273	C.2	1	RES1	0.000	
11	 C21	-0.106	50.773	-85.061	C.2	1	RES1	0.000	
12	 C22	0.667	51.333	-84.038	C.2	1	RES1	0.000	
13	 C23	1.353	52.512	-84.223	C.2	1	RES1	0.000	
14	 C24	2.056	52.810	-83.013	C.2	1	RES1	0.000	
15	 C25	2.239	51.674	-80.731	C.3	1	RES1	0.000	
16	 C26	3.717	51.282	-80.651	C.3	1	RES1	0.000	
17	 C27	4.149	51.177	-79.207	C.3	1	RES1	0.000	
18	 C28	3.285	50.192	-78.426	C.3	1	RES1	0.000	
19	 C29	1.384	50.660	-79.976	C.2	1	RES1	0.000	
20	 C30	0.896	50.852	-82.688	C.2	1	RES1	0.000	
@<TRIPOS>BOND
1 1 14 2
2 5 8 1
3 8 9 ar
4 8 13 ar
5 9 10 ar
6 10 11 ar
7 11 12 ar
8 12 13 ar
9 12 20 ar
10 13 14 ar
11 6 14 ar
12 6 15 1
13 15 16 1
14 15 19 1
15 16 17 1
16 17 18 1
17 2 18 1
18 7 18 1
19 3 19 2
20 7 19 1
21 4 20 2
22 6 20 ar
@<TRIPOS>SUBSTRUCTURE
1	RES1	1	GROUP	1 ****	RES
