# created with PyMOL 2.5.2
@<TRIPOS>MOLECULE
CDK2_6H0G_E3ligase
20 22 1                 
SMALL
USER_CHARGES
@<TRIPOS>ATOM
1	  O4	2.809	53.749	-82.840	O.2	1	RES1	0.000	
2	  O5	3.697	49.695	-77.422	O.2	1	RES1	0.000	
3	  O6	0.213	50.413	-80.177	O.2	1	RES1	0.000	
4	  O7	0.419	49.823	-82.259	O.2	1	RES1	0.000	
5	 N11	1.975	54.446	-85.614	N.pl3	1	RES1	0.000	
6	 N12	1.726	51.779	-82.098	N.2	1	RES1	0.000	
7	 N13	1.976	50.061	-78.872	N.pl3	1	RES1	0.000	
8	 C30	1.348	53.199	-85.450	C.2	1	RES1	0.000	
9	 C31	0.529	52.678	-86.467	C.2	1	RES1	0.000	
10	 C32	-0.175	51.474	-86.287	C.2	1	RES1	0.000	
11	 C33	-0.122	50.785	-85.072	C.2	1	RES1	0.000	
12	 C34	0.673	51.327	-84.060	C.2	1	RES1	0.000	
13	 C35	1.354	52.519	-84.245	C.2	1	RES1	0.000	
14	 C36	2.045	52.795	-83.008	C.2	1	RES1	0.000	
15	 C37	2.230	51.639	-80.734	C.3	1	RES1	0.000	
16	 C38	3.725	51.251	-80.666	C.3	1	RES1	0.000	
17	 C39	4.148	51.185	-79.216	C.3	1	RES1	0.000	
18	 C40	3.281	50.237	-78.425	C.2	1	RES1	0.000	
19	 C41	1.378	50.673	-79.948	C.2	1	RES1	0.000	
20	 C42	0.898	50.865	-82.707	C.2	1	RES1	0.000	
@<TRIPOS>BOND
1 5 8 1
2 6 14 ar
3 6 15 1
4 6 20 ar
5 7 18 1
6 7 19 1
7 8 9 ar
8 8 13 ar
9 9 10 ar
10 10 11 ar
11 11 12 ar
12 12 13 ar
13 12 20 ar
14 13 14 ar
15 1 14 2
16 15 16 1
17 15 19 1
18 16 17 1
19 17 18 1
20 2 18 2
21 3 19 2
22 4 20 2
@<TRIPOS>SUBSTRUCTURE
1	RES1	1	GROUP	1 ****	RES
