# created with PyMOL 2.5.2
@<TRIPOS>MOLECULE
CDK2_6H0G_E3ligase
20 22 1                 
SMALL
USER_CHARGES
@<TRIPOS>ATOM
1	  O4	2.842	53.758	-82.863	O.2	1	RES1	0.000	
2	  O5	3.651	49.670	-77.414	O.3	1	RES1	0.000	
3	  O6	0.219	50.420	-80.264	O.2	1	RES1	0.000	
4	  O7	0.447	49.845	-82.212	O.2	1	RES1	0.000	
5	 N11	1.966	54.427	-85.638	N.pl3	1	RES1	0.000	
6	 N12	1.755	51.803	-82.110	N.2	1	RES1	0.000	
7	 N13	1.981	50.046	-78.897	N.pl3	1	RES1	0.000	
8	 C32	1.320	53.201	-85.437	C.2	1	RES1	0.000	
9	 C33	0.515	52.660	-86.442	C.2	1	RES1	0.000	
10	 C34	-0.212	51.468	-86.279	C.2	1	RES1	0.000	
11	 C35	-0.132	50.785	-85.059	C.2	1	RES1	0.000	
12	 C36	0.642	51.349	-84.031	C.2	1	RES1	0.000	
13	 C37	1.372	52.510	-84.239	C.2	1	RES1	0.000	
14	 C38	2.092	52.802	-83.016	C.2	1	RES1	0.000	
15	 C39	2.253	51.671	-80.744	C.3	1	RES1	0.000	
16	 C40	3.725	51.271	-80.640	C.3	1	RES1	0.000	
17	 C41	4.131	51.192	-79.191	C.3	1	RES1	0.000	
18	 C42	3.269	50.197	-78.413	C.3	1	RES1	0.000	
19	 C43	1.378	50.645	-79.983	C.2	1	RES1	0.000	
20	 C44	0.911	50.874	-82.695	C.2	1	RES1	0.000	
@<TRIPOS>BOND
1 5 8 1
2 6 14 ar
3 6 15 1
4 6 20 ar
5 7 18 1
6 7 19 1
7 8 9 ar
8 8 13 ar
9 9 10 ar
10 10 11 ar
11 11 12 ar
12 12 13 ar
13 12 20 ar
14 13 14 ar
15 1 14 2
16 15 16 1
17 15 19 1
18 16 17 1
19 17 18 1
20 2 18 1
21 3 19 2
22 4 20 2
@<TRIPOS>SUBSTRUCTURE
1	RES1	1	GROUP	1 ****	RES
