# created with PyMOL 2.5.2
@<TRIPOS>MOLECULE
CDK2_7BQU_E3ligase
19 21 1                 
SMALL
USER_CHARGES
@<TRIPOS>ATOM
1	  O6	23.125	17.695	13.661	O.2	1	RES1	0.000	
2	  O7	26.311	20.285	17.906	O.2	1	RES1	0.000	
3	  O8	23.758	19.600	14.245	O.2	1	RES1	0.000	
4	  O9	27.386	17.232	11.923	O.2	1	RES1	0.000	
5	 N12	25.451	17.733	13.137	N.2	1	RES1	0.000	
6	 N13	25.060	19.853	16.065	N.pl3	1	RES1	0.000	
7	 C30	22.923	15.796	11.309	C.2	1	RES1	0.000	
8	 C31	23.171	14.978	10.190	C.2	1	RES1	0.000	
9	 C32	24.449	14.837	9.669	C.2	1	RES1	0.000	
10	 C33	25.543	15.494	10.251	C.2	1	RES1	0.000	
11	 C34	25.296	16.304	11.346	C.2	1	RES1	0.000	
12	 C35	24.028	16.454	11.867	C.2	1	RES1	0.000	
13	 C36	24.101	17.353	13.004	C.2	1	RES1	0.000	
14	 C37	25.986	18.634	14.138	C.3	1	RES1	0.000	
15	 C38	26.867	17.956	15.195	C.3	1	RES1	0.000	
16	 C39	27.354	18.995	16.179	C.3	1	RES1	0.000	
17	 C40	26.183	19.763	16.810	C.2	1	RES1	0.000	
18	 C41	24.818	19.365	14.795	C.2	1	RES1	0.000	
19	 C42	26.185	17.125	12.148	C.2	1	RES1	0.000	
@<TRIPOS>BOND
1 5 13 ar
2 5 14 1
3 5 19 ar
4 6 17 1
5 6 18 1
6 7 8 ar
7 7 12 ar
8 8 9 ar
9 9 10 ar
10 10 11 ar
11 11 12 ar
12 11 19 ar
13 12 13 ar
14 1 13 2
15 14 15 1
16 14 18 1
17 15 16 1
18 16 17 1
19 2 17 2
20 3 18 2
21 4 19 2
@<TRIPOS>SUBSTRUCTURE
1	RES1	1	GROUP	1 ****	RES
