# created with PyMOL 2.5.2
@<TRIPOS>MOLECULE
CDK2_7BQU_E3ligase
19 21 1                 
SMALL
USER_CHARGES
@<TRIPOS>ATOM
1	  O6	27.398	17.209	11.954	O.2	1	RES1	0.000	
2	  O7	26.341	20.308	17.892	O.2	1	RES1	0.000	
3	  O8	23.736	19.600	14.270	O.2	1	RES1	0.000	
4	  O9	23.126	17.699	13.623	O.2	1	RES1	0.000	
5	 N12	25.426	17.689	13.143	N.2	1	RES1	0.000	
6	 N13	25.066	19.853	16.097	N.pl3	1	RES1	0.000	
7	 C32	25.543	15.509	10.249	C.2	1	RES1	0.000	
8	 C33	24.465	14.827	9.653	C.2	1	RES1	0.000	
9	 C34	23.165	14.980	10.184	C.2	1	RES1	0.000	
10	 C35	22.930	15.802	11.288	C.2	1	RES1	0.000	
11	 C36	24.014	16.444	11.848	C.2	1	RES1	0.000	
12	 C37	25.280	16.290	11.357	C.2	1	RES1	0.000	
13	 C38	26.192	17.101	12.165	C.2	1	RES1	0.000	
14	 C39	25.961	18.629	14.154	C.3	1	RES1	0.000	
15	 C40	26.859	17.980	15.195	C.3	1	RES1	0.000	
16	 C41	27.357	19.012	16.147	C.3	1	RES1	0.000	
17	 C42	26.237	19.794	16.811	C.2	1	RES1	0.000	
18	 C43	24.800	19.381	14.824	C.2	1	RES1	0.000	
19	 C44	24.100	17.345	12.983	C.2	1	RES1	0.000	
@<TRIPOS>BOND
1 5 13 ar
2 5 14 1
3 5 19 ar
4 6 17 1
5 6 18 1
6 7 8 ar
7 7 12 ar
8 8 9 ar
9 9 10 ar
10 10 11 ar
11 11 12 ar
12 11 19 ar
13 12 13 ar
14 1 13 2
15 14 15 1
16 14 18 1
17 15 16 1
18 16 17 1
19 2 17 2
20 3 18 2
21 4 19 2
@<TRIPOS>SUBSTRUCTURE
1	RES1	1	GROUP	1 ****	RES
