# created with PyMOL 2.5.2
@<TRIPOS>MOLECULE
CDK2_7BQU_E3ligase
19 21 1                 
SMALL
USER_CHARGES
@<TRIPOS>ATOM
1	  O6	27.383	17.230	11.953	O.2	1	RES1	0.000	
2	  O7	26.381	20.267	17.895	O.2	1	RES1	0.000	
3	  O8	23.719	19.594	14.295	O.2	1	RES1	0.000	
4	  O9	23.090	17.696	13.637	O.2	1	RES1	0.000	
5	 N12	25.393	17.704	13.122	N.2	1	RES1	0.000	
6	 N13	25.063	19.877	16.093	N.pl3	1	RES1	0.000	
7	 C34	25.563	15.507	10.257	C.2	1	RES1	0.000	
8	 C35	24.484	14.826	9.682	C.2	1	RES1	0.000	
9	 C36	23.199	14.942	10.179	C.2	1	RES1	0.000	
10	 C37	22.930	15.781	11.283	C.2	1	RES1	0.000	
11	 C38	24.025	16.434	11.861	C.2	1	RES1	0.000	
12	 C39	25.288	16.308	11.353	C.2	1	RES1	0.000	
13	 C40	26.185	17.121	12.163	C.2	1	RES1	0.000	
14	 C41	25.948	18.654	14.130	C.3	1	RES1	0.000	
15	 C42	26.847	17.969	15.173	C.3	1	RES1	0.000	
16	 C43	27.371	19.015	16.115	C.3	1	RES1	0.000	
17	 C44	26.241	19.757	16.810	C.2	1	RES1	0.000	
18	 C45	24.811	19.403	14.842	C.2	1	RES1	0.000	
19	 C46	24.074	17.369	12.996	C.2	1	RES1	0.000	
@<TRIPOS>BOND
1 5 13 ar
2 5 14 1
3 5 19 ar
4 6 17 1
5 6 18 1
6 7 8 ar
7 7 12 ar
8 8 9 ar
9 9 10 ar
10 10 11 ar
11 11 12 ar
12 11 19 ar
13 12 13 ar
14 1 13 2
15 14 15 1
16 14 18 1
17 15 16 1
18 16 17 1
19 2 17 2
20 3 18 2
21 4 19 2
@<TRIPOS>SUBSTRUCTURE
1	RES1	1	GROUP	1 ****	RES
