# created with PyMOL 2.5.2
@<TRIPOS>MOLECULE
CDK2_7BQU_E3ligase
19 21 1                 
SMALL
USER_CHARGES
@<TRIPOS>ATOM
1	  N1	25.391	17.700	13.141	N.2	1	RES1	0.000	
2	  N2	25.079	19.871	16.077	N.pl3	1	RES1	0.000	
3	  C3	25.564	15.510	10.268	C.2	1	RES1	0.000	
4	  O3	27.376	17.202	11.983	O.2	1	RES1	0.000	
5	  C4	24.473	14.825	9.672	C.2	1	RES1	0.000	
6	  O4	26.394	20.283	17.905	O.2	1	RES1	0.000	
7	  C5	23.197	14.956	10.172	C.2	1	RES1	0.000	
8	  O5	23.711	19.587	14.316	O.2	1	RES1	0.000	
9	  C6	22.944	15.789	11.296	C.2	1	RES1	0.000	
10	  O6	23.089	17.706	13.616	O.2	1	RES1	0.000	
11	  C7	24.028	16.445	11.843	C.2	1	RES1	0.000	
12	  C8	25.281	16.303	11.352	C.2	1	RES1	0.000	
13	  C9	26.189	17.120	12.148	C.2	1	RES1	0.000	
14	 C10	25.914	18.630	14.112	C.3	1	RES1	0.000	
15	 C11	26.861	17.985	15.175	C.3	1	RES1	0.000	
16	 C12	27.381	19.029	16.119	C.3	1	RES1	0.000	
17	 C13	26.241	19.765	16.813	C.2	1	RES1	0.000	
18	 C14	24.792	19.397	14.831	C.2	1	RES1	0.000	
19	 C15	24.088	17.350	13.002	C.2	1	RES1	0.000	
@<TRIPOS>BOND
1 1 13 ar
2 1 14 1
3 1 19 ar
4 3 5 ar
5 3 12 ar
6 4 13 2
7 5 7 ar
8 7 9 ar
9 9 11 ar
10 11 12 ar
11 12 13 ar
12 14 15 1
13 14 18 1
14 15 16 1
15 16 17 1
16 2 17 1
17 6 17 2
18 2 18 1
19 8 18 2
20 10 19 2
21 11 19 ar
@<TRIPOS>SUBSTRUCTURE
1	RES1	1	GROUP	1 ****	RES
