# created with PyMOL 2.5.2
@<TRIPOS>MOLECULE
CDK2_7BQU_E3ligase
19 21 1                 
SMALL
USER_CHARGES
@<TRIPOS>ATOM
1	  O9	27.385	17.181	11.966	O.2	1	RES1	0.000	
2	 O10	26.365	20.299	17.896	O.2	1	RES1	0.000	
3	 O11	23.712	19.566	14.312	O.2	1	RES1	0.000	
4	 N12	25.434	17.692	13.158	N.2	1	RES1	0.000	
5	 O12	23.089	17.724	13.628	O.2	1	RES1	0.000	
6	 N13	25.069	19.888	16.094	N.pl3	1	RES1	0.000	
7	 C38	25.549	15.480	10.244	C.2	1	RES1	0.000	
8	 C39	24.490	14.836	9.646	C.2	1	RES1	0.000	
9	 C40	23.178	14.981	10.166	C.2	1	RES1	0.000	
10	 C41	22.935	15.788	11.273	C.2	1	RES1	0.000	
11	 C42	24.015	16.440	11.854	C.2	1	RES1	0.000	
12	 C43	25.279	16.291	11.352	C.2	1	RES1	0.000	
13	 C44	26.183	17.114	12.150	C.2	1	RES1	0.000	
14	 C45	25.941	18.622	14.149	C.3	1	RES1	0.000	
15	 C46	26.869	17.984	15.175	C.3	1	RES1	0.000	
16	 C47	27.376	19.042	16.147	C.3	1	RES1	0.000	
17	 C48	26.249	19.799	16.804	C.2	1	RES1	0.000	
18	 C49	24.786	19.359	14.846	C.2	1	RES1	0.000	
19	 C50	24.088	17.367	12.980	C.2	1	RES1	0.000	
@<TRIPOS>BOND
1 2 17 2
2 3 18 2
3 4 13 ar
4 4 14 1
5 4 19 ar
6 5 19 2
7 6 17 1
8 6 18 1
9 7 8 ar
10 7 12 ar
11 8 9 ar
12 9 10 ar
13 10 11 ar
14 11 12 ar
15 11 19 ar
16 12 13 ar
17 1 13 2
18 14 15 1
19 14 18 1
20 15 16 1
21 16 17 1
@<TRIPOS>SUBSTRUCTURE
1	RES1	1	GROUP	1 ****	RES
