# created with PyMOL 2.5.2
@<TRIPOS>MOLECULE
CDK6_6H0G_E3ligase
20 22 1                 
SMALL
USER_CHARGES
@<TRIPOS>ATOM
1	  O3	2.797	53.748	-82.822	O.2	1	RES1	0.000	
2	  O4	3.709	49.690	-77.415	O.2	1	RES1	0.000	
3	  O5	0.192	50.432	-80.161	O.2	1	RES1	0.000	
4	  N6	1.981	54.458	-85.604	N.pl3	1	RES1	0.000	
5	  O6	0.421	49.813	-82.269	O.2	1	RES1	0.000	
6	  N7	1.707	51.796	-82.098	N.2	1	RES1	0.000	
7	  N8	2.007	50.054	-78.861	N.pl3	1	RES1	0.000	
8	 C23	1.346	53.198	-85.454	C.2	1	RES1	0.000	
9	 C24	0.519	52.662	-86.478	C.2	1	RES1	0.000	
10	 C25	-0.170	51.463	-86.285	C.2	1	RES1	0.000	
11	 C26	-0.094	50.778	-85.092	C.2	1	RES1	0.000	
12	 C27	0.669	51.338	-84.092	C.2	1	RES1	0.000	
13	 C28	1.348	52.523	-84.249	C.2	1	RES1	0.000	
14	 C29	2.061	52.802	-82.981	C.2	1	RES1	0.000	
15	 C30	2.224	51.650	-80.721	C.3	1	RES1	0.000	
16	 C31	3.690	51.234	-80.679	C.3	1	RES1	0.000	
17	 C32	4.138	51.202	-79.246	C.3	1	RES1	0.000	
18	 C33	3.300	50.234	-78.420	C.2	1	RES1	0.000	
19	 C34	1.380	50.668	-79.928	C.2	1	RES1	0.000	
20	 C35	0.902	50.851	-82.712	C.2	1	RES1	0.000	
@<TRIPOS>BOND
1 4 8 1
2 8 9 ar
3 8 13 ar
4 9 10 ar
5 10 11 ar
6 11 12 ar
7 12 13 ar
8 12 20 ar
9 13 14 ar
10 1 14 2
11 6 14 ar
12 6 15 1
13 15 16 1
14 15 19 1
15 16 17 1
16 17 18 1
17 2 18 2
18 7 18 1
19 3 19 2
20 7 19 1
21 5 20 2
22 6 20 ar
@<TRIPOS>SUBSTRUCTURE
1	RES1	1	GROUP	1 ****	RES
