# created with PyMOL 2.5.2
@<TRIPOS>MOLECULE
CDK6_6H0G_E3ligase
20 22 1                 
SMALL
USER_CHARGES
@<TRIPOS>ATOM
1	  N6	1.954	54.448	-85.594	N.pl3	1	RES1	0.000	
2	  N7	1.745	51.785	-82.113	N.2	1	RES1	0.000	
3	  N8	1.965	50.094	-78.879	N.pl3	1	RES1	0.000	
4	  O8	2.818	53.729	-82.827	O.2	1	RES1	0.000	
5	  O9	3.668	49.670	-77.404	O.3	1	RES1	0.000	
6	 O10	0.210	50.484	-80.204	O.2	1	RES1	0.000	
7	 O11	0.437	49.803	-82.271	O.2	1	RES1	0.000	
8	 C29	1.324	53.216	-85.447	C.2	1	RES1	0.000	
9	 C30	0.521	52.665	-86.453	C.2	1	RES1	0.000	
10	 C31	-0.189	51.478	-86.291	C.2	1	RES1	0.000	
11	 C32	-0.127	50.789	-85.064	C.2	1	RES1	0.000	
12	 C33	0.646	51.339	-84.074	C.2	1	RES1	0.000	
13	 C34	1.369	52.501	-84.229	C.2	1	RES1	0.000	
14	 C35	2.079	52.779	-82.998	C.2	1	RES1	0.000	
15	 C36	2.265	51.640	-80.732	C.3	1	RES1	0.000	
16	 C37	3.722	51.237	-80.675	C.3	1	RES1	0.000	
17	 C38	4.147	51.177	-79.221	C.3	1	RES1	0.000	
18	 C39	3.282	50.242	-78.434	C.3	1	RES1	0.000	
19	 C40	1.374	50.676	-79.939	C.2	1	RES1	0.000	
20	 C41	0.919	50.841	-82.718	C.2	1	RES1	0.000	
@<TRIPOS>BOND
1 6 19 2
2 7 20 2
3 1 8 1
4 8 9 ar
5 8 13 ar
6 9 10 ar
7 10 11 ar
8 11 12 ar
9 12 13 ar
10 12 20 ar
11 13 14 ar
12 2 14 ar
13 4 14 2
14 2 15 1
15 15 16 1
16 15 19 1
17 16 17 1
18 17 18 1
19 3 18 1
20 5 18 1
21 3 19 1
22 2 20 ar
@<TRIPOS>SUBSTRUCTURE
1	RES1	1	GROUP	1 ****	RES
