# created with PyMOL 2.5.2
@<TRIPOS>MOLECULE
CDK6_7BQU_E3ligase
19 21 1                 
SMALL
USER_CHARGES
@<TRIPOS>ATOM
1	  O4	27.399	17.207	11.951	O.2	1	RES1	0.000	
2	  O5	26.351	20.294	17.909	O.2	1	RES1	0.000	
3	  N6	25.425	17.712	13.142	N.2	1	RES1	0.000	
4	  O6	23.728	19.613	14.249	O.2	1	RES1	0.000	
5	  N7	25.058	19.876	16.054	N.pl3	1	RES1	0.000	
6	  O7	23.114	17.682	13.641	O.2	1	RES1	0.000	
7	 C23	25.554	15.494	10.233	C.2	1	RES1	0.000	
8	 C24	24.471	14.830	9.644	C.2	1	RES1	0.000	
9	 C25	23.149	14.988	10.180	C.2	1	RES1	0.000	
10	 C26	22.942	15.798	11.293	C.2	1	RES1	0.000	
11	 C27	24.018	16.445	11.850	C.2	1	RES1	0.000	
12	 C28	25.285	16.303	11.356	C.2	1	RES1	0.000	
13	 C29	26.191	17.118	12.157	C.2	1	RES1	0.000	
14	 C30	25.956	18.628	14.149	C.3	1	RES1	0.000	
15	 C31	26.857	17.956	15.210	C.3	1	RES1	0.000	
16	 C32	27.363	19.008	16.168	C.3	1	RES1	0.000	
17	 C33	26.225	19.784	16.825	C.2	1	RES1	0.000	
18	 C34	24.812	19.385	14.811	C.2	1	RES1	0.000	
19	 C35	24.097	17.333	13.017	C.2	1	RES1	0.000	
@<TRIPOS>BOND
1 7 8 ar
2 7 12 ar
3 8 9 ar
4 9 10 ar
5 10 11 ar
6 11 12 ar
7 11 19 ar
8 12 13 ar
9 1 13 2
10 3 13 ar
11 3 14 1
12 14 15 1
13 14 18 1
14 15 16 1
15 16 17 1
16 2 17 2
17 5 17 1
18 4 18 2
19 5 18 1
20 3 19 ar
21 6 19 2
@<TRIPOS>SUBSTRUCTURE
1	RES1	1	GROUP	1 ****	RES
