# created with PyMOL 2.5.2
@<TRIPOS>MOLECULE
BRD2_6H0G_E3ligase
20 22 1                 
SMALL
USER_CHARGES
@<TRIPOS>ATOM
1	  O2	2.835	53.728	-82.849	O.2	1	RES1	0.000	
2	  O3	3.666	49.669	-77.424	O.3	1	RES1	0.000	
3	  O4	0.199	50.453	-80.250	O.2	1	RES1	0.000	
4	  O5	0.431	49.816	-82.243	O.2	1	RES1	0.000	
5	  N6	1.971	54.450	-85.611	N.pl3	1	RES1	0.000	
6	  N7	1.753	51.804	-82.122	N.2	1	RES1	0.000	
7	  N8	1.970	50.046	-78.879	N.pl3	1	RES1	0.000	
8	 C17	1.325	53.199	-85.457	C.2	1	RES1	0.000	
9	 C18	0.513	52.667	-86.445	C.2	1	RES1	0.000	
10	 C19	-0.182	51.463	-86.282	C.2	1	RES1	0.000	
11	 C20	-0.153	50.796	-85.052	C.2	1	RES1	0.000	
12	 C21	0.668	51.346	-84.056	C.2	1	RES1	0.000	
13	 C22	1.351	52.519	-84.243	C.2	1	RES1	0.000	
14	 C23	2.060	52.775	-83.007	C.2	1	RES1	0.000	
15	 C24	2.257	51.663	-80.744	C.3	1	RES1	0.000	
16	 C25	3.734	51.272	-80.643	C.3	1	RES1	0.000	
17	 C26	4.142	51.191	-79.196	C.3	1	RES1	0.000	
18	 C27	3.277	50.220	-78.404	C.3	1	RES1	0.000	
19	 C28	1.398	50.665	-79.971	C.2	1	RES1	0.000	
20	 C29	0.909	50.852	-82.686	C.2	1	RES1	0.000	
@<TRIPOS>BOND
1 1 14 2
2 5 8 1
3 8 9 ar
4 8 13 ar
5 9 10 ar
6 10 11 ar
7 11 12 ar
8 12 13 ar
9 12 20 ar
10 13 14 ar
11 6 14 ar
12 6 15 1
13 15 16 1
14 15 19 1
15 16 17 1
16 17 18 1
17 2 18 1
18 7 18 1
19 3 19 2
20 7 19 1
21 4 20 2
22 6 20 ar
@<TRIPOS>SUBSTRUCTURE
1	RES1	1	GROUP	1 ****	RES
