# created with PyMOL 2.5.2
@<TRIPOS>MOLECULE
CDK6_6H0G_E3ligase
20 22 1                 
SMALL
USER_CHARGES
@<TRIPOS>ATOM
1	  O3	2.830	53.756	-82.863	O.2	1	RES1	0.000	
2	  O4	3.653	49.648	-77.434	O.3	1	RES1	0.000	
3	  O5	0.197	50.444	-80.243	O.2	1	RES1	0.000	
4	  N6	1.968	54.440	-85.618	N.pl3	1	RES1	0.000	
5	  O6	0.443	49.823	-82.240	O.2	1	RES1	0.000	
6	  N7	1.748	51.804	-82.126	N.2	1	RES1	0.000	
7	  N8	1.986	50.066	-78.877	N.pl3	1	RES1	0.000	
8	 C21	1.324	53.205	-85.462	C.2	1	RES1	0.000	
9	 C22	0.513	52.668	-86.462	C.2	1	RES1	0.000	
10	 C23	-0.210	51.473	-86.273	C.2	1	RES1	0.000	
11	 C24	-0.119	50.771	-85.039	C.2	1	RES1	0.000	
12	 C25	0.675	51.344	-84.037	C.2	1	RES1	0.000	
13	 C26	1.349	52.502	-84.234	C.2	1	RES1	0.000	
14	 C27	2.089	52.789	-82.993	C.2	1	RES1	0.000	
15	 C28	2.260	51.668	-80.727	C.3	1	RES1	0.000	
16	 C29	3.723	51.271	-80.629	C.3	1	RES1	0.000	
17	 C30	4.132	51.188	-79.217	C.3	1	RES1	0.000	
18	 C31	3.265	50.207	-78.422	C.3	1	RES1	0.000	
19	 C32	1.387	50.650	-79.971	C.2	1	RES1	0.000	
20	 C33	0.912	50.877	-82.698	C.2	1	RES1	0.000	
@<TRIPOS>BOND
1 4 8 1
2 8 9 ar
3 8 13 ar
4 9 10 ar
5 10 11 ar
6 11 12 ar
7 12 13 ar
8 12 20 ar
9 13 14 ar
10 1 14 2
11 6 14 ar
12 6 15 1
13 15 16 1
14 15 19 1
15 16 17 1
16 17 18 1
17 2 18 1
18 7 18 1
19 3 19 2
20 7 19 1
21 5 20 2
22 6 20 ar
@<TRIPOS>SUBSTRUCTURE
1	RES1	1	GROUP	1 ****	RES
