# created with PyMOL 2.5.2
@<TRIPOS>MOLECULE
CDK6_6H0G_E3ligase
20 22 1                 
SMALL
USER_CHARGES
@<TRIPOS>ATOM
1	  O3	2.839	53.732	-82.855	O.2	1	RES1	0.000	
2	  O4	3.660	49.658	-77.426	O.3	1	RES1	0.000	
3	  O5	0.212	50.441	-80.243	O.2	1	RES1	0.000	
4	  N6	1.984	54.447	-85.610	N.pl3	1	RES1	0.000	
5	  O6	0.440	49.836	-82.227	O.2	1	RES1	0.000	
6	  N7	1.751	51.805	-82.113	N.2	1	RES1	0.000	
7	  N8	1.981	50.068	-78.879	N.pl3	1	RES1	0.000	
8	 C21	1.322	53.183	-85.423	C.2	1	RES1	0.000	
9	 C22	0.498	52.668	-86.447	C.2	1	RES1	0.000	
10	 C23	-0.188	51.478	-86.278	C.2	1	RES1	0.000	
11	 C24	-0.137	50.777	-85.046	C.2	1	RES1	0.000	
12	 C25	0.653	51.320	-84.071	C.2	1	RES1	0.000	
13	 C26	1.362	52.519	-84.243	C.2	1	RES1	0.000	
14	 C27	2.084	52.785	-83.000	C.2	1	RES1	0.000	
15	 C28	2.249	51.669	-80.761	C.3	1	RES1	0.000	
16	 C29	3.730	51.257	-80.657	C.3	1	RES1	0.000	
17	 C30	4.135	51.206	-79.194	C.3	1	RES1	0.000	
18	 C31	3.254	50.231	-78.431	C.3	1	RES1	0.000	
19	 C32	1.383	50.648	-79.959	C.2	1	RES1	0.000	
20	 C33	0.914	50.868	-82.702	C.2	1	RES1	0.000	
@<TRIPOS>BOND
1 4 8 1
2 8 9 ar
3 8 13 ar
4 9 10 ar
5 10 11 ar
6 11 12 ar
7 12 13 ar
8 12 20 ar
9 13 14 ar
10 1 14 2
11 6 14 ar
12 6 15 1
13 15 16 1
14 15 19 1
15 16 17 1
16 17 18 1
17 2 18 1
18 7 18 1
19 3 19 2
20 7 19 1
21 5 20 2
22 6 20 ar
@<TRIPOS>SUBSTRUCTURE
1	RES1	1	GROUP	1 ****	RES
