# created with PyMOL 2.5.2
@<TRIPOS>MOLECULE
CDK6_7BQU_E3ligase
19 21 1                 
SMALL
USER_CHARGES
@<TRIPOS>ATOM
1	  O4	27.392	17.227	11.929	O.2	1	RES1	0.000	
2	  O5	26.353	20.280	17.902	O.2	1	RES1	0.000	
3	  N6	25.411	17.718	13.129	N.2	1	RES1	0.000	
4	  O6	23.759	19.610	14.264	O.2	1	RES1	0.000	
5	  N7	25.075	19.878	16.078	N.pl3	1	RES1	0.000	
6	  O7	23.107	17.697	13.646	O.2	1	RES1	0.000	
7	 C20	25.557	15.518	10.230	C.2	1	RES1	0.000	
8	 C21	24.472	14.818	9.682	C.2	1	RES1	0.000	
9	 C22	23.170	14.967	10.180	C.2	1	RES1	0.000	
10	 C23	22.934	15.773	11.291	C.2	1	RES1	0.000	
11	 C24	24.022	16.424	11.863	C.2	1	RES1	0.000	
12	 C25	25.305	16.309	11.356	C.2	1	RES1	0.000	
13	 C26	26.173	17.124	12.148	C.2	1	RES1	0.000	
14	 C27	25.955	18.638	14.127	C.3	1	RES1	0.000	
15	 C28	26.859	17.963	15.179	C.3	1	RES1	0.000	
16	 C29	27.371	19.021	16.169	C.3	1	RES1	0.000	
17	 C30	26.213	19.746	16.822	C.2	1	RES1	0.000	
18	 C31	24.792	19.396	14.836	C.2	1	RES1	0.000	
19	 C32	24.075	17.348	13.009	C.2	1	RES1	0.000	
@<TRIPOS>BOND
1 7 8 ar
2 7 12 ar
3 8 9 ar
4 9 10 ar
5 10 11 ar
6 11 12 ar
7 11 19 ar
8 12 13 ar
9 1 13 2
10 3 13 ar
11 3 14 1
12 14 15 1
13 14 18 1
14 15 16 1
15 16 17 1
16 2 17 2
17 5 17 1
18 4 18 2
19 5 18 1
20 3 19 ar
21 6 19 2
@<TRIPOS>SUBSTRUCTURE
1	RES1	1	GROUP	1 ****	RES
