# created with PyMOL 2.5.2
@<TRIPOS>MOLECULE
CDK6_7BQU_E3ligase
19 21 1                 
SMALL
USER_CHARGES
@<TRIPOS>ATOM
1	  O4	27.395	17.186	11.955	O.2	1	RES1	0.000	
2	  O5	26.325	20.341	17.890	O.2	1	RES1	0.000	
3	  N6	25.443	17.682	13.149	N.2	1	RES1	0.000	
4	  O6	23.754	19.614	14.223	O.2	1	RES1	0.000	
5	  N7	25.077	19.907	16.076	N.pl3	1	RES1	0.000	
6	  O7	23.129	17.676	13.662	O.2	1	RES1	0.000	
7	 C19	25.544	15.500	10.240	C.2	1	RES1	0.000	
8	 C20	24.442	14.863	9.658	C.2	1	RES1	0.000	
9	 C21	23.146	14.997	10.171	C.2	1	RES1	0.000	
10	 C22	22.946	15.825	11.280	C.2	1	RES1	0.000	
11	 C23	24.034	16.463	11.854	C.2	1	RES1	0.000	
12	 C24	25.295	16.298	11.344	C.2	1	RES1	0.000	
13	 C25	26.191	17.097	12.169	C.2	1	RES1	0.000	
14	 C26	25.945	18.586	14.148	C.3	1	RES1	0.000	
15	 C27	26.837	17.965	15.212	C.3	1	RES1	0.000	
16	 C28	27.362	18.993	16.192	C.3	1	RES1	0.000	
17	 C29	26.212	19.767	16.796	C.2	1	RES1	0.000	
18	 C30	24.814	19.375	14.797	C.2	1	RES1	0.000	
19	 C31	24.102	17.318	13.022	C.2	1	RES1	0.000	
@<TRIPOS>BOND
1 7 8 ar
2 7 12 ar
3 8 9 ar
4 9 10 ar
5 10 11 ar
6 11 12 ar
7 11 19 ar
8 12 13 ar
9 1 13 2
10 3 13 ar
11 3 14 1
12 14 15 1
13 14 18 1
14 15 16 1
15 16 17 1
16 2 17 2
17 5 17 1
18 4 18 2
19 5 18 1
20 3 19 ar
21 6 19 2
@<TRIPOS>SUBSTRUCTURE
1	RES1	1	GROUP	1 ****	RES
