# created with PyMOL 2.5.2
@<TRIPOS>MOLECULE
CDK6_7BQU_E3ligase
19 21 1                 
SMALL
USER_CHARGES
@<TRIPOS>ATOM
1	  O4	27.399	17.211	11.959	O.2	1	RES1	0.000	
2	  O5	26.387	20.294	17.902	O.2	1	RES1	0.000	
3	  N6	25.400	17.712	13.156	N.2	1	RES1	0.000	
4	  O6	23.710	19.591	14.307	O.2	1	RES1	0.000	
5	  N7	25.070	19.902	16.096	N.pl3	1	RES1	0.000	
6	  O7	23.096	17.712	13.629	O.2	1	RES1	0.000	
7	 C19	25.576	15.494	10.257	C.2	1	RES1	0.000	
8	 C20	24.490	14.821	9.664	C.2	1	RES1	0.000	
9	 C21	23.185	14.964	10.160	C.2	1	RES1	0.000	
10	 C22	22.942	15.795	11.295	C.2	1	RES1	0.000	
11	 C23	24.002	16.439	11.858	C.2	1	RES1	0.000	
12	 C24	25.287	16.302	11.347	C.2	1	RES1	0.000	
13	 C25	26.182	17.105	12.155	C.2	1	RES1	0.000	
14	 C26	25.930	18.638	14.127	C.3	1	RES1	0.000	
15	 C27	26.840	17.977	15.160	C.3	1	RES1	0.000	
16	 C28	27.386	19.005	16.135	C.3	1	RES1	0.000	
17	 C29	26.251	19.778	16.792	C.2	1	RES1	0.000	
18	 C30	24.784	19.369	14.846	C.2	1	RES1	0.000	
19	 C31	24.075	17.346	12.993	C.2	1	RES1	0.000	
@<TRIPOS>BOND
1 7 8 ar
2 7 12 ar
3 8 9 ar
4 9 10 ar
5 10 11 ar
6 11 12 ar
7 11 19 ar
8 12 13 ar
9 1 13 2
10 3 13 ar
11 3 14 1
12 14 15 1
13 14 18 1
14 15 16 1
15 16 17 1
16 2 17 2
17 5 17 1
18 4 18 2
19 5 18 1
20 3 19 ar
21 6 19 2
@<TRIPOS>SUBSTRUCTURE
1	RES1	1	GROUP	1 ****	RES
