# created with PyMOL 2.5.2
@<TRIPOS>MOLECULE
PDE_6H0G_E3ligase
20 22 1                 
SMALL
USER_CHARGES
@<TRIPOS>ATOM
1	  C1	3.370	50.715	-78.363	C.2	1	RES1	0.000	
2	  N1	1.697	51.012	-82.309	N.2	1	RES1	0.000	
3	  O1	3.873	50.754	-77.225	O.2	1	RES1	0.000	
4	  C2	4.007	49.899	-79.481	C.3	1	RES1	0.000	
5	  N2	1.695	54.690	-84.763	N.pl3	1	RES1	0.000	
6	  O2	0.680	49.088	-83.129	O.2	1	RES1	0.000	
7	  C3	3.669	50.453	-80.853	C.3	1	RES1	0.000	
8	  C4	2.150	50.538	-80.988	C.3	1	RES1	0.000	
9	  C5	1.019	50.259	-83.207	C.2	1	RES1	0.000	
10	  C6	0.740	51.121	-84.362	C.2	1	RES1	0.000	
11	  C7	0.080	50.832	-85.541	C.2	1	RES1	0.000	
12	  N7	2.210	51.376	-78.693	N.pl3	1	RES1	0.000	
13	  C8	-0.024	51.860	-86.478	C.2	1	RES1	0.000	
14	  C9	0.456	53.138	-86.211	C.2	1	RES1	0.000	
15	 C10	1.078	53.414	-84.984	C.2	1	RES1	0.000	
16	 O10	2.334	53.322	-82.209	O.2	1	RES1	0.000	
17	 O11	0.484	52.000	-80.014	O.2	1	RES1	0.000	
18	 C49	1.218	52.384	-84.101	C.2	1	RES1	0.000	
19	 C50	1.851	52.341	-82.768	C.2	1	RES1	0.000	
20	 C51	1.537	51.396	-79.887	C.2	1	RES1	0.000	
@<TRIPOS>BOND
1 1 4 1
2 1 12 1
3 2 8 1
4 2 9 ar
5 2 19 ar
6 1 3 2
7 4 7 1
8 6 9 2
9 7 8 1
10 8 20 1
11 9 10 ar
12 10 11 ar
13 11 13 ar
14 13 14 ar
15 5 15 1
16 14 15 ar
17 15 18 ar
18 16 19 2
19 17 20 2
20 10 18 ar
21 18 19 ar
22 12 20 1
@<TRIPOS>SUBSTRUCTURE
1	RES1	1	GROUP	1 ****	RES
