# created with PyMOL 2.5.2
@<TRIPOS>MOLECULE
PDE_6H0G_E3ligase
20 22 1                 
SMALL
USER_CHARGES
@<TRIPOS>ATOM
1	  C1	3.392	50.679	-78.358	C.2	1	RES1	0.000	
2	  N1	1.708	51.045	-82.320	N.2	1	RES1	0.000	
3	  O1	3.853	50.736	-77.252	O.2	1	RES1	0.000	
4	  C2	3.968	49.855	-79.473	C.3	1	RES1	0.000	
5	  N2	1.645	54.695	-84.758	N.pl3	1	RES1	0.000	
6	  O2	0.708	49.072	-83.154	O.2	1	RES1	0.000	
7	  C3	3.647	50.446	-80.832	C.3	1	RES1	0.000	
8	  C4	2.135	50.542	-80.992	C.3	1	RES1	0.000	
9	  C5	1.032	50.255	-83.214	C.2	1	RES1	0.000	
10	  C6	0.733	51.126	-84.365	C.2	1	RES1	0.000	
11	  C7	0.119	50.819	-85.564	C.2	1	RES1	0.000	
12	  N7	2.237	51.389	-78.681	N.pl3	1	RES1	0.000	
13	  C8	-0.032	51.845	-86.505	C.2	1	RES1	0.000	
14	  C9	0.474	53.121	-86.212	C.2	1	RES1	0.000	
15	 C10	1.070	53.434	-84.997	C.2	1	RES1	0.000	
16	 O11	2.309	53.325	-82.186	O.2	1	RES1	0.000	
17	 O12	0.530	52.056	-79.980	O.2	1	RES1	0.000	
18	 C51	1.211	52.384	-84.096	C.2	1	RES1	0.000	
19	 C52	1.827	52.332	-82.748	C.2	1	RES1	0.000	
20	 C53	1.558	51.437	-79.879	C.2	1	RES1	0.000	
@<TRIPOS>BOND
1 1 4 1
2 1 12 1
3 2 8 1
4 2 9 ar
5 2 19 ar
6 1 3 2
7 4 7 1
8 6 9 2
9 7 8 1
10 8 20 1
11 9 10 ar
12 10 11 ar
13 11 13 ar
14 13 14 ar
15 5 15 1
16 14 15 ar
17 15 18 ar
18 16 19 2
19 17 20 2
20 10 18 ar
21 18 19 ar
22 12 20 1
@<TRIPOS>SUBSTRUCTURE
1	RES1	1	GROUP	1 ****	RES
