# created with PyMOL 2.5.2
@<TRIPOS>MOLECULE
PDE_6H0G_E3ligase
20 22 1                 
SMALL
USER_CHARGES
@<TRIPOS>ATOM
1	  C1	3.373	50.722	-78.373	C.2	1	RES1	0.000	
2	  N1	1.685	51.038	-82.312	N.2	1	RES1	0.000	
3	  O1	3.865	50.754	-77.255	O.2	1	RES1	0.000	
4	  C2	4.012	49.891	-79.481	C.3	1	RES1	0.000	
5	  N2	1.677	54.682	-84.757	N.pl3	1	RES1	0.000	
6	  O2	0.701	49.089	-83.141	O.2	1	RES1	0.000	
7	  C3	3.640	50.452	-80.850	C.3	1	RES1	0.000	
8	  C4	2.150	50.527	-81.001	C.3	1	RES1	0.000	
9	  C5	1.017	50.264	-83.202	C.2	1	RES1	0.000	
10	  C6	0.738	51.102	-84.352	C.2	1	RES1	0.000	
11	  C7	0.089	50.827	-85.550	C.2	1	RES1	0.000	
12	  N7	2.225	51.380	-78.673	N.pl3	1	RES1	0.000	
13	  C8	-0.034	51.859	-86.472	C.2	1	RES1	0.000	
14	  C9	0.473	53.136	-86.209	C.2	1	RES1	0.000	
15	 C10	1.103	53.432	-84.996	C.2	1	RES1	0.000	
16	 O12	2.323	53.323	-82.192	O.2	1	RES1	0.000	
17	 O13	0.482	52.012	-80.003	O.2	1	RES1	0.000	
18	 C53	1.225	52.367	-84.083	C.2	1	RES1	0.000	
19	 C54	1.835	52.337	-82.764	C.2	1	RES1	0.000	
20	 C55	1.546	51.401	-79.901	C.2	1	RES1	0.000	
@<TRIPOS>BOND
1 1 4 1
2 1 12 1
3 2 8 1
4 2 9 ar
5 2 19 ar
6 1 3 2
7 4 7 1
8 6 9 2
9 7 8 1
10 8 20 1
11 9 10 ar
12 10 11 ar
13 11 13 ar
14 13 14 ar
15 5 15 1
16 14 15 ar
17 15 18 ar
18 16 19 2
19 17 20 2
20 10 18 ar
21 18 19 ar
22 12 20 1
@<TRIPOS>SUBSTRUCTURE
1	RES1	1	GROUP	1 ****	RES
