# created with PyMOL 2.5.2
@<TRIPOS>MOLECULE
BRD4_6H0G_E3ligase
20 22 1                 
SMALL
USER_CHARGES
@<TRIPOS>ATOM
1	  O2	2.838	53.727	-82.836	O.2	1	RES1	0.000	
2	  O3	3.667	49.686	-77.401	O.3	1	RES1	0.000	
3	  O4	0.184	50.480	-80.200	O.2	1	RES1	0.000	
4	  O5	0.453	49.828	-82.269	O.2	1	RES1	0.000	
5	  N6	1.972	54.451	-85.604	N.pl3	1	RES1	0.000	
6	  N7	1.756	51.771	-82.104	N.2	1	RES1	0.000	
7	  N8	1.981	50.090	-78.862	N.pl3	1	RES1	0.000	
8	 C17	1.319	53.197	-85.454	C.2	1	RES1	0.000	
9	 C18	0.505	52.696	-86.471	C.2	1	RES1	0.000	
10	 C19	-0.208	51.473	-86.275	C.2	1	RES1	0.000	
11	 C20	-0.129	50.799	-85.083	C.2	1	RES1	0.000	
12	 C21	0.661	51.321	-84.072	C.2	1	RES1	0.000	
13	 C22	1.332	52.502	-84.242	C.2	1	RES1	0.000	
14	 C23	2.079	52.776	-83.010	C.2	1	RES1	0.000	
15	 C24	2.262	51.638	-80.765	C.3	1	RES1	0.000	
16	 C25	3.725	51.248	-80.650	C.3	1	RES1	0.000	
17	 C26	4.139	51.154	-79.210	C.3	1	RES1	0.000	
18	 C27	3.280	50.239	-78.413	C.3	1	RES1	0.000	
19	 C28	1.382	50.662	-79.947	C.2	1	RES1	0.000	
20	 C29	0.928	50.855	-82.699	C.2	1	RES1	0.000	
@<TRIPOS>BOND
1 1 14 2
2 5 8 1
3 8 9 ar
4 8 13 ar
5 9 10 ar
6 10 11 ar
7 11 12 ar
8 12 13 ar
9 12 20 ar
10 13 14 ar
11 6 14 ar
12 6 15 1
13 15 16 1
14 15 19 1
15 16 17 1
16 17 18 1
17 2 18 1
18 7 18 1
19 3 19 2
20 7 19 1
21 4 20 2
22 6 20 ar
@<TRIPOS>SUBSTRUCTURE
1	RES1	1	GROUP	1 ****	RES
