# created with PyMOL 2.5.2
@<TRIPOS>MOLECULE
CDK6_6H0G_E3ligase
20 22 1                 
SMALL
USER_CHARGES
@<TRIPOS>ATOM
1	  O3	2.831	53.739	-82.860	O.2	1	RES1	0.000	
2	  O4	3.646	49.706	-77.384	O.3	1	RES1	0.000	
3	  O5	0.230	50.448	-80.198	O.2	1	RES1	0.000	
4	  N6	1.983	54.452	-85.616	N.pl3	1	RES1	0.000	
5	  O6	0.420	49.823	-82.280	O.2	1	RES1	0.000	
6	  N7	1.735	51.746	-82.127	N.2	1	RES1	0.000	
7	  N8	1.989	50.074	-78.839	N.pl3	1	RES1	0.000	
8	 C24	1.318	53.209	-85.439	C.2	1	RES1	0.000	
9	 C25	0.512	52.676	-86.465	C.2	1	RES1	0.000	
10	 C26	-0.193	51.493	-86.272	C.2	1	RES1	0.000	
11	 C27	-0.145	50.788	-85.083	C.2	1	RES1	0.000	
12	 C28	0.645	51.332	-84.058	C.2	1	RES1	0.000	
13	 C29	1.356	52.504	-84.259	C.2	1	RES1	0.000	
14	 C30	2.083	52.780	-83.000	C.2	1	RES1	0.000	
15	 C31	2.252	51.620	-80.753	C.3	1	RES1	0.000	
16	 C32	3.733	51.244	-80.657	C.3	1	RES1	0.000	
17	 C33	4.159	51.193	-79.199	C.3	1	RES1	0.000	
18	 C34	3.280	50.251	-78.403	C.3	1	RES1	0.000	
19	 C35	1.387	50.649	-79.962	C.2	1	RES1	0.000	
20	 C36	0.905	50.867	-82.713	C.2	1	RES1	0.000	
@<TRIPOS>BOND
1 1 14 2
2 4 8 1
3 8 9 ar
4 8 13 ar
5 9 10 ar
6 10 11 ar
7 11 12 ar
8 12 13 ar
9 12 20 ar
10 13 14 ar
11 6 14 ar
12 6 15 1
13 15 16 1
14 15 19 1
15 16 17 1
16 17 18 1
17 2 18 1
18 7 18 1
19 3 19 2
20 7 19 1
21 5 20 2
22 6 20 ar
@<TRIPOS>SUBSTRUCTURE
1	RES1	1	GROUP	1 ****	RES
