# created with PyMOL 2.5.2
@<TRIPOS>MOLECULE
CDK6_6H0G_E3ligase
20 22 1                 
SMALL
USER_CHARGES
@<TRIPOS>ATOM
1	  O3	2.838	53.708	-82.855	O.2	1	RES1	0.000	
2	  O4	3.674	49.733	-77.371	O.2	1	RES1	0.000	
3	  O5	0.215	50.445	-80.198	O.2	1	RES1	0.000	
4	  N6	1.990	54.444	-85.603	N.pl3	1	RES1	0.000	
5	  O6	0.432	49.814	-82.271	O.2	1	RES1	0.000	
6	  N7	1.734	51.741	-82.125	N.2	1	RES1	0.000	
7	  N8	1.989	50.090	-78.857	N.pl3	1	RES1	0.000	
8	 C23	1.329	53.232	-85.443	C.2	1	RES1	0.000	
9	 C24	0.511	52.691	-86.464	C.2	1	RES1	0.000	
10	 C25	-0.212	51.499	-86.308	C.2	1	RES1	0.000	
11	 C26	-0.147	50.800	-85.098	C.2	1	RES1	0.000	
12	 C27	0.646	51.344	-84.072	C.2	1	RES1	0.000	
13	 C28	1.353	52.496	-84.236	C.2	1	RES1	0.000	
14	 C29	2.076	52.777	-82.990	C.2	1	RES1	0.000	
15	 C30	2.260	51.609	-80.738	C.3	1	RES1	0.000	
16	 C31	3.715	51.242	-80.657	C.3	1	RES1	0.000	
17	 C32	4.167	51.188	-79.203	C.3	1	RES1	0.000	
18	 C33	3.270	50.254	-78.401	C.2	1	RES1	0.000	
19	 C34	1.385	50.648	-79.966	C.2	1	RES1	0.000	
20	 C35	0.899	50.837	-82.709	C.2	1	RES1	0.000	
@<TRIPOS>BOND
1 4 8 1
2 8 9 ar
3 8 13 ar
4 9 10 ar
5 10 11 ar
6 11 12 ar
7 12 13 ar
8 12 20 ar
9 13 14 ar
10 1 14 2
11 6 14 ar
12 6 15 1
13 15 16 1
14 15 19 1
15 16 17 1
16 17 18 1
17 2 18 2
18 7 18 1
19 3 19 2
20 7 19 1
21 5 20 2
22 6 20 ar
@<TRIPOS>SUBSTRUCTURE
1	RES1	1	GROUP	1 ****	RES
