# created with PyMOL 2.5.2
@<TRIPOS>MOLECULE
BRD4_6H0G_E3ligase
20 22 1                 
SMALL
USER_CHARGES
@<TRIPOS>ATOM
1	  N3	2.141	54.360	-85.624	N.pl3	1	RES1	0.000	
2	  N4	1.762	51.718	-82.122	N.2	1	RES1	0.000	
3	  N5	2.024	50.016	-78.891	N.pl3	1	RES1	0.000	
4	  O5	2.808	53.715	-82.805	O.2	1	RES1	0.000	
5	  O6	3.702	49.759	-77.386	O.2	1	RES1	0.000	
6	  O7	0.256	50.292	-80.277	O.2	1	RES1	0.000	
7	  O8	0.323	49.841	-82.259	O.2	1	RES1	0.000	
8	 C21	1.296	53.225	-85.433	C.2	1	RES1	0.000	
9	 C22	0.543	52.692	-86.451	C.2	1	RES1	0.000	
10	 C23	-0.213	51.522	-86.297	C.2	1	RES1	0.000	
11	 C24	-0.181	50.817	-85.114	C.2	1	RES1	0.000	
12	 C25	0.634	51.341	-84.078	C.2	1	RES1	0.000	
13	 C26	1.342	52.505	-84.238	C.2	1	RES1	0.000	
14	 C27	2.064	52.768	-82.986	C.2	1	RES1	0.000	
15	 C28	2.243	51.626	-80.746	C.3	1	RES1	0.000	
16	 C29	3.713	51.348	-80.619	C.3	1	RES1	0.000	
17	 C30	4.097	51.317	-79.158	C.3	1	RES1	0.000	
18	 C31	3.308	50.291	-78.400	C.2	1	RES1	0.000	
19	 C32	1.412	50.598	-79.982	C.2	1	RES1	0.000	
20	 C33	0.852	50.842	-82.701	C.2	1	RES1	0.000	
@<TRIPOS>BOND
1 1 8 1
2 8 9 ar
3 8 13 ar
4 9 10 ar
5 10 11 ar
6 11 12 ar
7 12 13 ar
8 12 20 ar
9 13 14 ar
10 2 14 ar
11 4 14 2
12 2 15 1
13 15 16 1
14 15 19 1
15 16 17 1
16 17 18 1
17 3 18 1
18 5 18 2
19 3 19 1
20 6 19 2
21 2 20 ar
22 7 20 2
@<TRIPOS>SUBSTRUCTURE
1	RES1	1	GROUP	1 ****	RES
