# created with PyMOL 2.5.2
@<TRIPOS>MOLECULE
BRD4_6H0G_E3ligase
20 22 1                 
SMALL
USER_CHARGES
@<TRIPOS>ATOM
1	  N3	1.956	54.459	-85.589	N.pl3	1	RES1	0.000	
2	  N4	1.689	51.786	-82.106	N.2	1	RES1	0.000	
3	  N5	2.017	50.098	-78.849	N.pl3	1	RES1	0.000	
4	  O5	2.782	53.770	-82.813	O.2	1	RES1	0.000	
5	  O6	3.722	49.696	-77.415	O.2	1	RES1	0.000	
6	  O7	0.178	50.481	-80.125	O.2	1	RES1	0.000	
7	  O8	0.454	49.803	-82.289	O.2	1	RES1	0.000	
8	 C22	1.350	53.224	-85.442	C.2	1	RES1	0.000	
9	 C23	0.527	52.669	-86.475	C.2	1	RES1	0.000	
10	 C24	-0.133	51.472	-86.321	C.2	1	RES1	0.000	
11	 C25	-0.104	50.771	-85.095	C.2	1	RES1	0.000	
12	 C26	0.671	51.307	-84.063	C.2	1	RES1	0.000	
13	 C27	1.357	52.501	-84.238	C.2	1	RES1	0.000	
14	 C28	2.038	52.806	-82.990	C.2	1	RES1	0.000	
15	 C29	2.215	51.633	-80.730	C.3	1	RES1	0.000	
16	 C30	3.677	51.224	-80.689	C.3	1	RES1	0.000	
17	 C31	4.166	51.166	-79.261	C.3	1	RES1	0.000	
18	 C32	3.298	50.222	-78.439	C.2	1	RES1	0.000	
19	 C33	1.368	50.664	-79.924	C.2	1	RES1	0.000	
20	 C34	0.897	50.842	-82.716	C.2	1	RES1	0.000	
@<TRIPOS>BOND
1 1 8 1
2 8 9 ar
3 8 13 ar
4 9 10 ar
5 10 11 ar
6 11 12 ar
7 12 13 ar
8 12 20 ar
9 13 14 ar
10 2 14 ar
11 4 14 2
12 2 15 1
13 15 16 1
14 15 19 1
15 16 17 1
16 17 18 1
17 3 18 1
18 5 18 2
19 3 19 1
20 6 19 2
21 2 20 ar
22 7 20 2
@<TRIPOS>SUBSTRUCTURE
1	RES1	1	GROUP	1 ****	RES
