# created with PyMOL 2.5.2
@<TRIPOS>MOLECULE
BRD4_6H0G_E3ligase
20 22 1                 
SMALL
USER_CHARGES
@<TRIPOS>ATOM
1	  N3	1.949	54.434	-85.630	N.pl3	1	RES1	0.000	
2	  N4	1.751	51.836	-82.096	N.2	1	RES1	0.000	
3	  N5	1.979	50.033	-78.887	N.pl3	1	RES1	0.000	
4	  O5	2.827	53.790	-82.867	O.2	1	RES1	0.000	
5	  O6	3.661	49.594	-77.443	O.3	1	RES1	0.000	
6	  O7	0.207	50.454	-80.255	O.2	1	RES1	0.000	
7	  O8	0.461	49.850	-82.220	O.2	1	RES1	0.000	
8	 C23	1.333	53.199	-85.435	C.2	1	RES1	0.000	
9	 C24	0.509	52.631	-86.470	C.2	1	RES1	0.000	
10	 C25	-0.181	51.437	-86.271	C.2	1	RES1	0.000	
11	 C26	-0.116	50.779	-85.038	C.2	1	RES1	0.000	
12	 C27	0.656	51.346	-84.044	C.2	1	RES1	0.000	
13	 C28	1.349	52.506	-84.241	C.2	1	RES1	0.000	
14	 C29	2.067	52.824	-82.985	C.2	1	RES1	0.000	
15	 C30	2.242	51.685	-80.707	C.3	1	RES1	0.000	
16	 C31	3.723	51.299	-80.651	C.3	1	RES1	0.000	
17	 C32	4.144	51.178	-79.184	C.3	1	RES1	0.000	
18	 C33	3.254	50.191	-78.455	C.3	1	RES1	0.000	
19	 C34	1.394	50.658	-80.013	C.2	1	RES1	0.000	
20	 C35	0.917	50.868	-82.672	C.2	1	RES1	0.000	
@<TRIPOS>BOND
1 1 8 1
2 8 9 ar
3 8 13 ar
4 9 10 ar
5 10 11 ar
6 11 12 ar
7 12 13 ar
8 12 20 ar
9 13 14 ar
10 2 14 ar
11 4 14 2
12 2 15 1
13 15 16 1
14 15 19 1
15 16 17 1
16 17 18 1
17 3 18 1
18 5 18 1
19 3 19 1
20 6 19 2
21 2 20 ar
22 7 20 2
@<TRIPOS>SUBSTRUCTURE
1	RES1	1	GROUP	1 ****	RES
