# created with PyMOL 2.5.2
@<TRIPOS>MOLECULE
BRD4_6H0G_E3ligase
20 22 1                 
SMALL
USER_CHARGES
@<TRIPOS>ATOM
1	  N3	1.974	54.436	-85.598	N.pl3	1	RES1	0.000	
2	  N4	1.726	51.795	-82.099	N.2	1	RES1	0.000	
3	  N5	1.986	50.085	-78.864	N.pl3	1	RES1	0.000	
4	  O5	2.802	53.751	-82.844	O.2	1	RES1	0.000	
5	  O6	3.697	49.660	-77.412	O.2	1	RES1	0.000	
6	  O7	0.209	50.455	-80.217	O.2	1	RES1	0.000	
7	  O8	0.447	49.826	-82.253	O.2	1	RES1	0.000	
8	 C24	1.328	53.194	-85.451	C.2	1	RES1	0.000	
9	 C25	0.518	52.670	-86.460	C.2	1	RES1	0.000	
10	 C26	-0.183	51.457	-86.288	C.2	1	RES1	0.000	
11	 C27	-0.110	50.788	-85.071	C.2	1	RES1	0.000	
12	 C28	0.650	51.336	-84.067	C.2	1	RES1	0.000	
13	 C29	1.361	52.513	-84.251	C.2	1	RES1	0.000	
14	 C30	2.051	52.804	-82.997	C.2	1	RES1	0.000	
15	 C31	2.232	51.654	-80.722	C.3	1	RES1	0.000	
16	 C32	3.706	51.269	-80.660	C.3	1	RES1	0.000	
17	 C33	4.169	51.178	-79.218	C.3	1	RES1	0.000	
18	 C34	3.281	50.218	-78.415	C.2	1	RES1	0.000	
19	 C35	1.376	50.642	-79.957	C.2	1	RES1	0.000	
20	 C36	0.905	50.860	-82.720	C.2	1	RES1	0.000	
@<TRIPOS>BOND
1 1 8 1
2 8 9 ar
3 8 13 ar
4 9 10 ar
5 10 11 ar
6 11 12 ar
7 12 13 ar
8 12 20 ar
9 13 14 ar
10 2 14 ar
11 4 14 2
12 2 15 1
13 15 16 1
14 15 19 1
15 16 17 1
16 17 18 1
17 3 18 1
18 5 18 2
19 3 19 1
20 6 19 2
21 2 20 ar
22 7 20 2
@<TRIPOS>SUBSTRUCTURE
1	RES1	1	GROUP	1 ****	RES
