# created with PyMOL 2.5.2
@<TRIPOS>MOLECULE
BRD4_6H0G_E3ligase
20 22 1                 
SMALL
USER_CHARGES
@<TRIPOS>ATOM
1	  N3	1.993	54.418	-85.611	N.pl3	1	RES1	0.000	
2	  N4	1.747	51.787	-82.124	N.2	1	RES1	0.000	
3	  N5	1.985	50.048	-78.888	N.pl3	1	RES1	0.000	
4	  O5	2.851	53.748	-82.867	O.2	1	RES1	0.000	
5	  O6	3.687	49.670	-77.408	O.2	1	RES1	0.000	
6	  O7	0.220	50.380	-80.274	O.2	1	RES1	0.000	
7	  O8	0.399	49.838	-82.223	O.2	1	RES1	0.000	
8	 C25	1.333	53.195	-85.455	C.2	1	RES1	0.000	
9	 C26	0.517	52.672	-86.452	C.2	1	RES1	0.000	
10	 C27	-0.191	51.470	-86.267	C.2	1	RES1	0.000	
11	 C28	-0.149	50.815	-85.066	C.2	1	RES1	0.000	
12	 C29	0.658	51.346	-84.045	C.2	1	RES1	0.000	
13	 C30	1.358	52.489	-84.238	C.2	1	RES1	0.000	
14	 C31	2.057	52.794	-83.005	C.2	1	RES1	0.000	
15	 C32	2.249	51.653	-80.721	C.3	1	RES1	0.000	
16	 C33	3.742	51.294	-80.634	C.3	1	RES1	0.000	
17	 C34	4.140	51.236	-79.164	C.3	1	RES1	0.000	
18	 C35	3.260	50.231	-78.424	C.2	1	RES1	0.000	
19	 C36	1.386	50.636	-80.011	C.2	1	RES1	0.000	
20	 C37	0.885	50.874	-82.688	C.2	1	RES1	0.000	
@<TRIPOS>BOND
1 1 8 1
2 8 9 ar
3 8 13 ar
4 9 10 ar
5 10 11 ar
6 11 12 ar
7 12 13 ar
8 12 20 ar
9 13 14 ar
10 2 14 ar
11 4 14 2
12 2 15 1
13 15 16 1
14 15 19 1
15 16 17 1
16 17 18 1
17 3 18 1
18 5 18 2
19 3 19 1
20 6 19 2
21 2 20 ar
22 7 20 2
@<TRIPOS>SUBSTRUCTURE
1	RES1	1	GROUP	1 ****	RES
