# created with PyMOL 2.5.2
@<TRIPOS>MOLECULE
CDK6_6H0G_E3ligase
20 22 1                 
SMALL
USER_CHARGES
@<TRIPOS>ATOM
1	  O5	2.817	53.720	-82.823	O.2	1	RES1	0.000	
2	  N6	1.967	54.443	-85.586	N.pl3	1	RES1	0.000	
3	  O6	3.702	49.731	-77.400	O.2	1	RES1	0.000	
4	  N7	1.709	51.751	-82.118	N.2	1	RES1	0.000	
5	  O7	0.205	50.469	-80.157	O.2	1	RES1	0.000	
6	  N8	1.987	50.098	-78.851	N.pl3	1	RES1	0.000	
7	  O8	0.414	49.798	-82.279	O.2	1	RES1	0.000	
8	 C23	1.343	53.229	-85.442	C.2	1	RES1	0.000	
9	 C24	0.536	52.695	-86.477	C.2	1	RES1	0.000	
10	 C25	-0.182	51.500	-86.309	C.2	1	RES1	0.000	
11	 C26	-0.108	50.783	-85.093	C.2	1	RES1	0.000	
12	 C27	0.666	51.330	-84.085	C.2	1	RES1	0.000	
13	 C28	1.336	52.493	-84.231	C.2	1	RES1	0.000	
14	 C29	2.050	52.791	-82.992	C.2	1	RES1	0.000	
15	 C30	2.239	51.610	-80.753	C.3	1	RES1	0.000	
16	 C31	3.730	51.223	-80.686	C.3	1	RES1	0.000	
17	 C32	4.147	51.183	-79.235	C.3	1	RES1	0.000	
18	 C33	3.298	50.249	-78.399	C.2	1	RES1	0.000	
19	 C34	1.373	50.676	-79.916	C.2	1	RES1	0.000	
20	 C35	0.897	50.823	-82.734	C.2	1	RES1	0.000	
@<TRIPOS>BOND
1 2 8 1
2 8 9 ar
3 8 13 ar
4 9 10 ar
5 10 11 ar
6 11 12 ar
7 12 13 ar
8 12 20 ar
9 13 14 ar
10 1 14 2
11 4 14 ar
12 4 15 1
13 15 16 1
14 15 19 1
15 16 17 1
16 17 18 1
17 3 18 2
18 6 18 1
19 5 19 2
20 6 19 1
21 4 20 ar
22 7 20 2
@<TRIPOS>SUBSTRUCTURE
1	RES1	1	GROUP	1 ****	RES
