# created with PyMOL 2.5.2
@<TRIPOS>MOLECULE
BTK_6H0G_E3ligase
20 22 1                 
SMALL
USER_CHARGES
@<TRIPOS>ATOM
1	  O5	2.801	53.756	-82.839	O.2	1	RES1	0.000	
2	  O6	3.694	49.687	-77.414	O.2	1	RES1	0.000	
3	  O7	0.191	50.459	-80.200	O.2	1	RES1	0.000	
4	  N8	1.981	54.444	-85.598	N.pl3	1	RES1	0.000	
5	  O8	0.444	49.812	-82.258	O.2	1	RES1	0.000	
6	  N9	1.724	51.773	-82.112	N.2	1	RES1	0.000	
7	 N10	1.983	50.090	-78.851	N.pl3	1	RES1	0.000	
8	 C34	1.324	53.204	-85.463	C.2	1	RES1	0.000	
9	 C35	0.535	52.693	-86.462	C.2	1	RES1	0.000	
10	 C36	-0.193	51.478	-86.283	C.2	1	RES1	0.000	
11	 C37	-0.113	50.779	-85.083	C.2	1	RES1	0.000	
12	 C38	0.664	51.337	-84.051	C.2	1	RES1	0.000	
13	 C39	1.345	52.499	-84.247	C.2	1	RES1	0.000	
14	 C40	2.062	52.776	-82.997	C.2	1	RES1	0.000	
15	 C41	2.240	51.634	-80.744	C.3	1	RES1	0.000	
16	 C42	3.725	51.228	-80.672	C.3	1	RES1	0.000	
17	 C43	4.155	51.183	-79.223	C.3	1	RES1	0.000	
18	 C44	3.284	50.241	-78.405	C.2	1	RES1	0.000	
19	 C45	1.385	50.658	-79.932	C.2	1	RES1	0.000	
20	 C46	0.894	50.863	-82.732	C.2	1	RES1	0.000	
@<TRIPOS>BOND
1 7 18 1
2 7 19 1
3 4 8 1
4 8 9 ar
5 8 13 ar
6 9 10 ar
7 10 11 ar
8 11 12 ar
9 12 13 ar
10 12 20 ar
11 13 14 ar
12 1 14 2
13 6 14 ar
14 6 15 1
15 15 16 1
16 15 19 1
17 16 17 1
18 17 18 1
19 2 18 2
20 3 19 2
21 5 20 2
22 6 20 ar
@<TRIPOS>SUBSTRUCTURE
1	RES1	1	GROUP	1 ****	RES
