# created with PyMOL 2.5.2
@<TRIPOS>MOLECULE
BRAF_6H0G_E3ligase
20 22 1                 
SMALL
USER_CHARGES
@<TRIPOS>ATOM
1	  O7	2.782	53.735	-82.800	O.2	1	RES1	0.000	
2	  N8	2.107	54.364	-85.598	N.pl3	1	RES1	0.000	
3	  O8	3.696	49.743	-77.368	O.2	1	RES1	0.000	
4	  N9	1.763	51.729	-82.131	N.2	1	RES1	0.000	
5	  O9	0.230	50.345	-80.258	O.2	1	RES1	0.000	
6	 N10	2.012	50.063	-78.882	N.pl3	1	RES1	0.000	
7	 O10	0.321	49.833	-82.289	O.2	1	RES1	0.000	
8	 C30	1.300	53.234	-85.426	C.2	1	RES1	0.000	
9	 C31	0.542	52.697	-86.470	C.2	1	RES1	0.000	
10	 C32	-0.214	51.508	-86.301	C.2	1	RES1	0.000	
11	 C33	-0.173	50.819	-85.084	C.2	1	RES1	0.000	
12	 C34	0.626	51.332	-84.068	C.2	1	RES1	0.000	
13	 C35	1.354	52.498	-84.246	C.2	1	RES1	0.000	
14	 C36	2.065	52.734	-82.982	C.2	1	RES1	0.000	
15	 C37	2.244	51.629	-80.765	C.3	1	RES1	0.000	
16	 C38	3.750	51.315	-80.628	C.3	1	RES1	0.000	
17	 C39	4.137	51.273	-79.166	C.3	1	RES1	0.000	
18	 C40	3.286	50.299	-78.393	C.2	1	RES1	0.000	
19	 C41	1.437	50.603	-79.978	C.2	1	RES1	0.000	
20	 C42	0.860	50.840	-82.733	C.2	1	RES1	0.000	
@<TRIPOS>BOND
1 6 18 1
2 6 19 1
3 7 20 2
4 2 8 1
5 8 9 ar
6 8 13 ar
7 9 10 ar
8 10 11 ar
9 11 12 ar
10 12 13 ar
11 12 20 ar
12 13 14 ar
13 1 14 2
14 4 14 ar
15 4 15 1
16 15 16 1
17 15 19 1
18 16 17 1
19 17 18 1
20 3 18 2
21 5 19 2
22 4 20 ar
@<TRIPOS>SUBSTRUCTURE
1	RES1	1	GROUP	1 ****	RES
