# created with PyMOL 2.5.2
@<TRIPOS>MOLECULE
BRD2_6H0G_E3ligase
20 22 1                 
SMALL
USER_CHARGES
@<TRIPOS>ATOM
1	  O2	2.823	53.728	-82.842	O.2	1	RES1	0.000	
2	  O3	3.679	49.683	-77.407	O.2	1	RES1	0.000	
3	  O4	0.203	50.431	-80.212	O.2	1	RES1	0.000	
4	  O5	0.445	49.834	-82.238	O.2	1	RES1	0.000	
5	  N6	1.968	54.428	-85.619	N.pl3	1	RES1	0.000	
6	  N7	1.725	51.785	-82.117	N.2	1	RES1	0.000	
7	  N8	2.003	50.075	-78.876	N.pl3	1	RES1	0.000	
8	 C16	1.311	53.216	-85.450	C.2	1	RES1	0.000	
9	 C17	0.531	52.679	-86.461	C.2	1	RES1	0.000	
10	 C18	-0.185	51.475	-86.269	C.2	1	RES1	0.000	
11	 C19	-0.115	50.783	-85.078	C.2	1	RES1	0.000	
12	 C20	0.666	51.343	-84.066	C.2	1	RES1	0.000	
13	 C21	1.348	52.513	-84.241	C.2	1	RES1	0.000	
14	 C22	2.064	52.787	-82.994	C.2	1	RES1	0.000	
15	 C23	2.242	51.643	-80.730	C.3	1	RES1	0.000	
16	 C24	3.712	51.246	-80.673	C.3	1	RES1	0.000	
17	 C25	4.151	51.180	-79.202	C.3	1	RES1	0.000	
18	 C26	3.261	50.235	-78.436	C.2	1	RES1	0.000	
19	 C27	1.382	50.665	-79.957	C.2	1	RES1	0.000	
20	 C28	0.911	50.864	-82.698	C.2	1	RES1	0.000	
@<TRIPOS>BOND
1 1 14 2
2 5 8 1
3 8 9 ar
4 8 13 ar
5 9 10 ar
6 10 11 ar
7 11 12 ar
8 12 13 ar
9 12 20 ar
10 13 14 ar
11 6 14 ar
12 6 15 1
13 15 16 1
14 15 19 1
15 16 17 1
16 17 18 1
17 2 18 2
18 7 18 1
19 3 19 2
20 7 19 1
21 4 20 2
22 6 20 ar
@<TRIPOS>SUBSTRUCTURE
1	RES1	1	GROUP	1 ****	RES
