# created with PyMOL 2.5.2
@<TRIPOS>MOLECULE
BRAF_6H0G_E3ligase
20 22 1                 
SMALL
USER_CHARGES
@<TRIPOS>ATOM
1	  O7	2.803	53.736	-82.813	O.2	1	RES1	0.000	
2	  N8	1.965	54.467	-85.572	N.pl3	1	RES1	0.000	
3	  O8	3.686	49.716	-77.391	O.2	1	RES1	0.000	
4	  N9	1.731	51.749	-82.117	N.2	1	RES1	0.000	
5	  O9	0.188	50.514	-80.151	O.2	1	RES1	0.000	
6	 N10	1.974	50.130	-78.831	N.pl3	1	RES1	0.000	
7	 O10	0.448	49.785	-82.291	O.2	1	RES1	0.000	
8	 C30	1.311	53.209	-85.443	C.2	1	RES1	0.000	
9	 C31	0.513	52.694	-86.461	C.2	1	RES1	0.000	
10	 C32	-0.190	51.503	-86.302	C.2	1	RES1	0.000	
11	 C33	-0.126	50.778	-85.090	C.2	1	RES1	0.000	
12	 C34	0.661	51.321	-84.096	C.2	1	RES1	0.000	
13	 C35	1.373	52.501	-84.243	C.2	1	RES1	0.000	
14	 C36	2.079	52.764	-83.000	C.2	1	RES1	0.000	
15	 C37	2.254	51.609	-80.765	C.3	1	RES1	0.000	
16	 C38	3.712	51.204	-80.676	C.3	1	RES1	0.000	
17	 C39	4.177	51.153	-79.242	C.3	1	RES1	0.000	
18	 C40	3.290	50.241	-78.406	C.2	1	RES1	0.000	
19	 C41	1.371	50.699	-79.931	C.2	1	RES1	0.000	
20	 C42	0.905	50.821	-82.746	C.2	1	RES1	0.000	
@<TRIPOS>BOND
1 6 18 1
2 6 19 1
3 7 20 2
4 2 8 1
5 8 9 ar
6 8 13 ar
7 9 10 ar
8 10 11 ar
9 11 12 ar
10 12 13 ar
11 12 20 ar
12 13 14 ar
13 1 14 2
14 4 14 ar
15 4 15 1
16 15 16 1
17 15 19 1
18 16 17 1
19 17 18 1
20 3 18 2
21 5 19 2
22 4 20 ar
@<TRIPOS>SUBSTRUCTURE
1	RES1	1	GROUP	1 ****	RES
