# created with PyMOL 2.5.2
@<TRIPOS>MOLECULE
BRAF_6H0G_E3ligase
20 22 1                 
SMALL
USER_CHARGES
@<TRIPOS>ATOM
1	  O4	2.787	53.765	-82.844	O.2	1	RES1	0.000	
2	  O5	3.695	49.663	-77.434	O.2	1	RES1	0.000	
3	  O6	0.202	50.457	-80.189	O.2	1	RES1	0.000	
4	  O7	0.435	49.822	-82.242	O.2	1	RES1	0.000	
5	  N8	1.967	54.430	-85.607	N.pl3	1	RES1	0.000	
6	  N9	1.730	51.798	-82.111	N.2	1	RES1	0.000	
7	 N10	1.981	50.068	-78.869	N.pl3	1	RES1	0.000	
8	 C25	1.327	53.192	-85.429	C.2	1	RES1	0.000	
9	 C26	0.532	52.686	-86.455	C.2	1	RES1	0.000	
10	 C27	-0.181	51.465	-86.304	C.2	1	RES1	0.000	
11	 C28	-0.118	50.773	-85.083	C.2	1	RES1	0.000	
12	 C29	0.669	51.337	-84.070	C.2	1	RES1	0.000	
13	 C30	1.361	52.500	-84.231	C.2	1	RES1	0.000	
14	 C31	2.063	52.793	-82.985	C.2	1	RES1	0.000	
15	 C32	2.240	51.649	-80.737	C.3	1	RES1	0.000	
16	 C33	3.704	51.250	-80.677	C.3	1	RES1	0.000	
17	 C34	4.161	51.175	-79.221	C.3	1	RES1	0.000	
18	 C35	3.271	50.237	-78.417	C.2	1	RES1	0.000	
19	 C36	1.380	50.668	-79.964	C.2	1	RES1	0.000	
20	 C37	0.920	50.865	-82.697	C.2	1	RES1	0.000	
@<TRIPOS>BOND
1 7 18 1
2 7 19 1
3 5 8 1
4 8 9 ar
5 8 13 ar
6 9 10 ar
7 10 11 ar
8 11 12 ar
9 12 13 ar
10 12 20 ar
11 13 14 ar
12 1 14 2
13 6 14 ar
14 6 15 1
15 15 16 1
16 15 19 1
17 16 17 1
18 17 18 1
19 2 18 2
20 3 19 2
21 4 20 2
22 6 20 ar
@<TRIPOS>SUBSTRUCTURE
1	RES1	1	GROUP	1 ****	RES
