# created with PyMOL 2.5.2
@<TRIPOS>MOLECULE
BRAF_6H0G_E3ligase
20 22 1                 
SMALL
USER_CHARGES
@<TRIPOS>ATOM
1	  O4	2.802	53.746	-82.833	O.2	1	RES1	0.000	
2	  O5	3.695	49.692	-77.400	O.2	1	RES1	0.000	
3	  O6	0.186	50.463	-80.156	O.2	1	RES1	0.000	
4	  O7	0.445	49.820	-82.282	O.2	1	RES1	0.000	
5	  N8	1.969	54.459	-85.600	N.pl3	1	RES1	0.000	
6	  N9	1.712	51.773	-82.113	N.2	1	RES1	0.000	
7	 N10	1.975	50.092	-78.833	N.pl3	1	RES1	0.000	
8	 C26	1.334	53.223	-85.465	C.2	1	RES1	0.000	
9	 C27	0.531	52.668	-86.472	C.2	1	RES1	0.000	
10	 C28	-0.176	51.479	-86.305	C.2	1	RES1	0.000	
11	 C29	-0.131	50.767	-85.088	C.2	1	RES1	0.000	
12	 C30	0.665	51.334	-84.070	C.2	1	RES1	0.000	
13	 C31	1.352	52.512	-84.245	C.2	1	RES1	0.000	
14	 C32	2.057	52.790	-83.007	C.2	1	RES1	0.000	
15	 C33	2.231	51.632	-80.747	C.3	1	RES1	0.000	
16	 C34	3.717	51.223	-80.683	C.3	1	RES1	0.000	
17	 C35	4.172	51.172	-79.233	C.3	1	RES1	0.000	
18	 C36	3.306	50.238	-78.412	C.2	1	RES1	0.000	
19	 C37	1.372	50.654	-79.922	C.2	1	RES1	0.000	
20	 C38	0.912	50.856	-82.700	C.2	1	RES1	0.000	
@<TRIPOS>BOND
1 7 18 1
2 7 19 1
3 5 8 1
4 8 9 ar
5 8 13 ar
6 9 10 ar
7 10 11 ar
8 11 12 ar
9 12 13 ar
10 12 20 ar
11 13 14 ar
12 1 14 2
13 6 14 ar
14 6 15 1
15 15 16 1
16 15 19 1
17 16 17 1
18 17 18 1
19 2 18 2
20 3 19 2
21 4 20 2
22 6 20 ar
@<TRIPOS>SUBSTRUCTURE
1	RES1	1	GROUP	1 ****	RES
