# created with PyMOL 2.5.2
@<TRIPOS>MOLECULE
BRAF_6H0G_E3ligase
20 22 1                 
SMALL
USER_CHARGES
@<TRIPOS>ATOM
1	  O4	2.749	53.718	-82.783	O.2	1	RES1	0.000	
2	  O5	3.733	49.770	-77.409	O.2	1	RES1	0.000	
3	  O6	0.259	50.288	-80.231	O.2	1	RES1	0.000	
4	  O7	0.291	49.839	-82.256	O.2	1	RES1	0.000	
5	  N8	2.124	54.357	-85.608	N.pl3	1	RES1	0.000	
6	  N9	1.729	51.717	-82.113	N.2	1	RES1	0.000	
7	 N10	2.036	50.042	-78.884	N.pl3	1	RES1	0.000	
8	 C27	1.334	53.224	-85.419	C.2	1	RES1	0.000	
9	 C28	0.577	52.706	-86.477	C.2	1	RES1	0.000	
10	 C29	-0.171	51.528	-86.295	C.2	1	RES1	0.000	
11	 C30	-0.165	50.820	-85.109	C.2	1	RES1	0.000	
12	 C31	0.620	51.339	-84.087	C.2	1	RES1	0.000	
13	 C32	1.356	52.488	-84.230	C.2	1	RES1	0.000	
14	 C33	2.041	52.749	-82.977	C.2	1	RES1	0.000	
15	 C34	2.209	51.647	-80.751	C.3	1	RES1	0.000	
16	 C35	3.710	51.357	-80.645	C.3	1	RES1	0.000	
17	 C36	4.128	51.315	-79.177	C.3	1	RES1	0.000	
18	 C37	3.310	50.308	-78.407	C.2	1	RES1	0.000	
19	 C38	1.406	50.574	-79.973	C.2	1	RES1	0.000	
20	 C39	0.850	50.807	-82.733	C.2	1	RES1	0.000	
@<TRIPOS>BOND
1 7 18 1
2 7 19 1
3 5 8 1
4 8 9 ar
5 8 13 ar
6 9 10 ar
7 10 11 ar
8 11 12 ar
9 12 13 ar
10 12 20 ar
11 13 14 ar
12 1 14 2
13 6 14 ar
14 6 15 1
15 15 16 1
16 15 19 1
17 16 17 1
18 17 18 1
19 2 18 2
20 3 19 2
21 4 20 2
22 6 20 ar
@<TRIPOS>SUBSTRUCTURE
1	RES1	1	GROUP	1 ****	RES
