# created with PyMOL 2.5.2
@<TRIPOS>MOLECULE
BRAF_6H0G_E3ligase
20 22 1                 
SMALL
USER_CHARGES
@<TRIPOS>ATOM
1	  O5	2.834	53.717	-82.827	O.2	1	RES1	0.000	
2	  O6	3.700	49.750	-77.386	O.2	1	RES1	0.000	
3	  O7	0.205	50.431	-80.175	O.2	1	RES1	0.000	
4	  N8	1.992	54.458	-85.572	N.pl3	1	RES1	0.000	
5	  O8	0.413	49.812	-82.278	O.2	1	RES1	0.000	
6	  N9	1.717	51.750	-82.117	N.2	1	RES1	0.000	
7	 N10	1.993	50.090	-78.852	N.pl3	1	RES1	0.000	
8	 C26	1.346	53.202	-85.444	C.2	1	RES1	0.000	
9	 C27	0.523	52.709	-86.471	C.2	1	RES1	0.000	
10	 C28	-0.174	51.504	-86.294	C.2	1	RES1	0.000	
11	 C29	-0.122	50.787	-85.085	C.2	1	RES1	0.000	
12	 C30	0.657	51.328	-84.093	C.2	1	RES1	0.000	
13	 C31	1.321	52.494	-84.241	C.2	1	RES1	0.000	
14	 C32	2.057	52.768	-82.994	C.2	1	RES1	0.000	
15	 C33	2.244	51.612	-80.757	C.3	1	RES1	0.000	
16	 C34	3.701	51.219	-80.701	C.3	1	RES1	0.000	
17	 C35	4.170	51.185	-79.215	C.3	1	RES1	0.000	
18	 C36	3.281	50.283	-78.411	C.2	1	RES1	0.000	
19	 C37	1.377	50.674	-79.931	C.2	1	RES1	0.000	
20	 C38	0.889	50.822	-82.720	C.2	1	RES1	0.000	
@<TRIPOS>BOND
1 7 18 1
2 7 19 1
3 4 8 1
4 8 9 ar
5 8 13 ar
6 9 10 ar
7 10 11 ar
8 11 12 ar
9 12 13 ar
10 12 20 ar
11 13 14 ar
12 1 14 2
13 6 14 ar
14 6 15 1
15 15 16 1
16 15 19 1
17 16 17 1
18 17 18 1
19 2 18 2
20 3 19 2
21 5 20 2
22 6 20 ar
@<TRIPOS>SUBSTRUCTURE
1	RES1	1	GROUP	1 ****	RES
