# created with PyMOL 2.5.2
@<TRIPOS>MOLECULE
BRAF_6H0G_E3ligase
20 22 1                 
SMALL
USER_CHARGES
@<TRIPOS>ATOM
1	  O4	2.832	53.773	-82.874	O.2	1	RES1	0.000	
2	  O5	3.668	49.662	-77.408	O.3	1	RES1	0.000	
3	  O6	0.203	50.420	-80.234	O.2	1	RES1	0.000	
4	  O7	0.445	49.839	-82.221	O.2	1	RES1	0.000	
5	  N8	1.986	54.444	-85.632	N.pl3	1	RES1	0.000	
6	  N9	1.746	51.802	-82.105	N.2	1	RES1	0.000	
7	 N10	1.986	50.047	-78.880	N.pl3	1	RES1	0.000	
8	 C28	1.325	53.196	-85.461	C.2	1	RES1	0.000	
9	 C29	0.510	52.677	-86.464	C.2	1	RES1	0.000	
10	 C30	-0.197	51.462	-86.281	C.2	1	RES1	0.000	
11	 C31	-0.144	50.787	-85.063	C.2	1	RES1	0.000	
12	 C32	0.658	51.345	-84.044	C.2	1	RES1	0.000	
13	 C33	1.371	52.503	-84.236	C.2	1	RES1	0.000	
14	 C34	2.077	52.800	-83.002	C.2	1	RES1	0.000	
15	 C35	2.250	51.666	-80.733	C.3	1	RES1	0.000	
16	 C36	3.714	51.273	-80.656	C.3	1	RES1	0.000	
17	 C37	4.132	51.206	-79.194	C.3	1	RES1	0.000	
18	 C38	3.275	50.205	-78.417	C.3	1	RES1	0.000	
19	 C39	1.382	50.630	-79.968	C.2	1	RES1	0.000	
20	 C40	0.905	50.856	-82.691	C.2	1	RES1	0.000	
@<TRIPOS>BOND
1 7 18 1
2 7 19 1
3 5 8 1
4 8 9 ar
5 8 13 ar
6 9 10 ar
7 10 11 ar
8 11 12 ar
9 12 13 ar
10 12 20 ar
11 13 14 ar
12 1 14 2
13 6 14 ar
14 6 15 1
15 15 16 1
16 15 19 1
17 16 17 1
18 17 18 1
19 2 18 1
20 3 19 2
21 4 20 2
22 6 20 ar
@<TRIPOS>SUBSTRUCTURE
1	RES1	1	GROUP	1 ****	RES
