# created with PyMOL 2.5.2
@<TRIPOS>MOLECULE
BRAF_6H0G_E3ligase
20 22 1                 
SMALL
USER_CHARGES
@<TRIPOS>ATOM
1	  O4	2.777	53.769	-82.839	O.2	1	RES1	0.000	
2	  O5	3.704	49.670	-77.431	O.2	1	RES1	0.000	
3	  O6	0.208	50.459	-80.162	O.2	1	RES1	0.000	
4	  O7	0.441	49.816	-82.251	O.2	1	RES1	0.000	
5	  N8	1.959	54.441	-85.584	N.pl3	1	RES1	0.000	
6	  N9	1.696	51.806	-82.122	N.2	1	RES1	0.000	
7	 N10	1.995	50.075	-78.867	N.pl3	1	RES1	0.000	
8	 C29	1.353	53.202	-85.440	C.2	1	RES1	0.000	
9	 C30	0.559	52.664	-86.465	C.2	1	RES1	0.000	
10	 C31	-0.160	51.463	-86.291	C.2	1	RES1	0.000	
11	 C32	-0.101	50.771	-85.095	C.2	1	RES1	0.000	
12	 C33	0.647	51.318	-84.067	C.2	1	RES1	0.000	
13	 C34	1.353	52.517	-84.244	C.2	1	RES1	0.000	
14	 C35	2.042	52.803	-82.975	C.2	1	RES1	0.000	
15	 C36	2.216	51.651	-80.723	C.3	1	RES1	0.000	
16	 C37	3.703	51.243	-80.687	C.3	1	RES1	0.000	
17	 C38	4.150	51.188	-79.227	C.3	1	RES1	0.000	
18	 C39	3.293	50.226	-78.452	C.2	1	RES1	0.000	
19	 C40	1.381	50.657	-79.936	C.2	1	RES1	0.000	
20	 C41	0.908	50.854	-82.708	C.2	1	RES1	0.000	
@<TRIPOS>BOND
1 7 18 1
2 7 19 1
3 5 8 1
4 8 9 ar
5 8 13 ar
6 9 10 ar
7 10 11 ar
8 11 12 ar
9 12 13 ar
10 12 20 ar
11 13 14 ar
12 1 14 2
13 6 14 ar
14 6 15 1
15 15 16 1
16 15 19 1
17 16 17 1
18 17 18 1
19 2 18 2
20 3 19 2
21 4 20 2
22 6 20 ar
@<TRIPOS>SUBSTRUCTURE
1	RES1	1	GROUP	1 ****	RES
