# created with PyMOL 2.5.2
@<TRIPOS>MOLECULE
BRAF_6H0G_E3ligase
20 22 1                 
SMALL
USER_CHARGES
@<TRIPOS>ATOM
1	  O6	2.765	53.718	-82.785	O.2	1	RES1	0.000	
2	  O7	3.756	49.803	-77.377	O.2	1	RES1	0.000	
3	  N8	2.151	54.352	-85.602	N.pl3	1	RES1	0.000	
4	  O8	0.269	50.260	-80.233	O.2	1	RES1	0.000	
5	  N9	1.734	51.684	-82.133	N.2	1	RES1	0.000	
6	  O9	0.275	49.841	-82.284	O.2	1	RES1	0.000	
7	 N10	2.036	50.029	-78.846	N.pl3	1	RES1	0.000	
8	 C28	1.319	53.221	-85.424	C.2	1	RES1	0.000	
9	 C29	0.569	52.706	-86.479	C.2	1	RES1	0.000	
10	 C30	-0.191	51.528	-86.326	C.2	1	RES1	0.000	
11	 C31	-0.157	50.837	-85.121	C.2	1	RES1	0.000	
12	 C32	0.620	51.348	-84.084	C.2	1	RES1	0.000	
13	 C33	1.349	52.475	-84.247	C.2	1	RES1	0.000	
14	 C34	2.054	52.739	-82.971	C.2	1	RES1	0.000	
15	 C35	2.200	51.619	-80.746	C.3	1	RES1	0.000	
16	 C36	3.691	51.362	-80.641	C.3	1	RES1	0.000	
17	 C37	4.105	51.351	-79.181	C.3	1	RES1	0.000	
18	 C38	3.329	50.301	-78.394	C.2	1	RES1	0.000	
19	 C39	1.414	50.584	-79.957	C.2	1	RES1	0.000	
20	 C40	0.837	50.836	-82.735	C.2	1	RES1	0.000	
@<TRIPOS>BOND
1 7 18 1
2 7 19 1
3 3 8 1
4 8 9 ar
5 8 13 ar
6 9 10 ar
7 10 11 ar
8 11 12 ar
9 12 13 ar
10 12 20 ar
11 13 14 ar
12 1 14 2
13 5 14 ar
14 5 15 1
15 15 16 1
16 15 19 1
17 16 17 1
18 17 18 1
19 2 18 2
20 4 19 2
21 5 20 ar
22 6 20 2
@<TRIPOS>SUBSTRUCTURE
1	RES1	1	GROUP	1 ****	RES
