# created with PyMOL 2.5.2
@<TRIPOS>MOLECULE
BRAF_6H0G_E3ligase
20 22 1                 
SMALL
USER_CHARGES
@<TRIPOS>ATOM
1	  N8	1.956	54.449	-85.601	N.pl3	1	RES1	0.000	
2	  O8	2.789	53.747	-82.828	O.2	1	RES1	0.000	
3	  N9	1.722	51.798	-82.098	N.2	1	RES1	0.000	
4	  O9	3.708	49.666	-77.419	O.2	1	RES1	0.000	
5	 N10	1.989	50.077	-78.872	N.pl3	1	RES1	0.000	
6	 O10	0.198	50.455	-80.217	O.2	1	RES1	0.000	
7	 O11	0.428	49.808	-82.247	O.2	1	RES1	0.000	
8	 C32	1.324	53.203	-85.438	C.2	1	RES1	0.000	
9	 C33	0.548	52.664	-86.457	C.2	1	RES1	0.000	
10	 C34	-0.161	51.465	-86.295	C.2	1	RES1	0.000	
11	 C35	-0.106	50.773	-85.087	C.2	1	RES1	0.000	
12	 C36	0.669	51.322	-84.059	C.2	1	RES1	0.000	
13	 C37	1.366	52.513	-84.218	C.2	1	RES1	0.000	
14	 C38	2.048	52.805	-82.984	C.2	1	RES1	0.000	
15	 C39	2.220	51.652	-80.731	C.3	1	RES1	0.000	
16	 C40	3.699	51.268	-80.678	C.3	1	RES1	0.000	
17	 C41	4.151	51.185	-79.230	C.3	1	RES1	0.000	
18	 C42	3.305	50.210	-78.440	C.2	1	RES1	0.000	
19	 C43	1.377	50.675	-79.965	C.2	1	RES1	0.000	
20	 C44	0.893	50.857	-82.701	C.2	1	RES1	0.000	
@<TRIPOS>BOND
1 5 18 1
2 5 19 1
3 6 19 2
4 7 20 2
5 1 8 1
6 8 9 ar
7 8 13 ar
8 9 10 ar
9 10 11 ar
10 11 12 ar
11 12 13 ar
12 12 20 ar
13 13 14 ar
14 2 14 2
15 3 14 ar
16 3 15 1
17 15 16 1
18 15 19 1
19 16 17 1
20 17 18 1
21 4 18 2
22 3 20 ar
@<TRIPOS>SUBSTRUCTURE
1	RES1	1	GROUP	1 ****	RES
