# created with PyMOL 2.5.2
@<TRIPOS>MOLECULE
BRAF_6H0G_E3ligase
20 22 1                 
SMALL
USER_CHARGES
@<TRIPOS>ATOM
1	  N8	1.972	54.454	-85.601	N.pl3	1	RES1	0.000	
2	  O8	2.789	53.760	-82.826	O.2	1	RES1	0.000	
3	  N9	1.710	51.797	-82.096	N.2	1	RES1	0.000	
4	  O9	3.711	49.676	-77.426	O.2	1	RES1	0.000	
5	 N10	2.001	50.081	-78.849	N.pl3	1	RES1	0.000	
6	 O10	0.181	50.474	-80.141	O.2	1	RES1	0.000	
7	 O11	0.432	49.807	-82.268	O.2	1	RES1	0.000	
8	 C32	1.337	53.214	-85.447	C.2	1	RES1	0.000	
9	 C33	0.534	52.683	-86.482	C.2	1	RES1	0.000	
10	 C34	-0.137	51.461	-86.294	C.2	1	RES1	0.000	
11	 C35	-0.096	50.765	-85.082	C.2	1	RES1	0.000	
12	 C36	0.660	51.304	-84.070	C.2	1	RES1	0.000	
13	 C37	1.328	52.495	-84.219	C.2	1	RES1	0.000	
14	 C38	2.050	52.825	-83.009	C.2	1	RES1	0.000	
15	 C39	2.221	51.649	-80.741	C.3	1	RES1	0.000	
16	 C40	3.707	51.239	-80.683	C.3	1	RES1	0.000	
17	 C41	4.144	51.176	-79.251	C.3	1	RES1	0.000	
18	 C42	3.295	50.224	-78.439	C.2	1	RES1	0.000	
19	 C43	1.370	50.643	-79.936	C.2	1	RES1	0.000	
20	 C44	0.917	50.868	-82.705	C.2	1	RES1	0.000	
@<TRIPOS>BOND
1 5 18 1
2 5 19 1
3 6 19 2
4 7 20 2
5 1 8 1
6 8 9 ar
7 8 13 ar
8 9 10 ar
9 10 11 ar
10 11 12 ar
11 12 13 ar
12 12 20 ar
13 13 14 ar
14 2 14 2
15 3 14 ar
16 3 15 1
17 15 16 1
18 15 19 1
19 16 17 1
20 17 18 1
21 4 18 2
22 3 20 ar
@<TRIPOS>SUBSTRUCTURE
1	RES1	1	GROUP	1 ****	RES
