# created with PyMOL 2.5.2
@<TRIPOS>MOLECULE
BRD4_6H0G_E3ligase
20 22 1                 
SMALL
USER_CHARGES
@<TRIPOS>ATOM
1	  O2	2.814	53.732	-82.853	O.2	1	RES1	0.000	
2	  O3	3.687	49.691	-77.395	O.2	1	RES1	0.000	
3	  O4	0.194	50.444	-80.230	O.2	1	RES1	0.000	
4	  O5	0.421	49.812	-82.274	O.2	1	RES1	0.000	
5	  N6	1.983	54.416	-85.573	N.pl3	1	RES1	0.000	
6	  N7	1.741	51.763	-82.117	N.2	1	RES1	0.000	
7	  N8	1.980	50.099	-78.857	N.pl3	1	RES1	0.000	
8	 C16	1.320	53.205	-85.452	C.2	1	RES1	0.000	
9	 C17	0.522	52.687	-86.475	C.2	1	RES1	0.000	
10	 C18	-0.200	51.489	-86.272	C.2	1	RES1	0.000	
11	 C19	-0.127	50.788	-85.091	C.2	1	RES1	0.000	
12	 C20	0.658	51.359	-84.060	C.2	1	RES1	0.000	
13	 C21	1.349	52.492	-84.249	C.2	1	RES1	0.000	
14	 C22	2.071	52.773	-82.980	C.2	1	RES1	0.000	
15	 C23	2.251	51.627	-80.757	C.3	1	RES1	0.000	
16	 C24	3.742	51.246	-80.656	C.3	1	RES1	0.000	
17	 C25	4.146	51.190	-79.214	C.3	1	RES1	0.000	
18	 C26	3.278	50.245	-78.408	C.2	1	RES1	0.000	
19	 C27	1.396	50.673	-79.953	C.2	1	RES1	0.000	
20	 C28	0.900	50.863	-82.701	C.2	1	RES1	0.000	
@<TRIPOS>BOND
1 1 14 2
2 5 8 1
3 8 9 ar
4 8 13 ar
5 9 10 ar
6 10 11 ar
7 11 12 ar
8 12 13 ar
9 12 20 ar
10 13 14 ar
11 6 14 ar
12 6 15 1
13 15 16 1
14 15 19 1
15 16 17 1
16 17 18 1
17 2 18 2
18 7 18 1
19 3 19 2
20 7 19 1
21 4 20 2
22 6 20 ar
@<TRIPOS>SUBSTRUCTURE
1	RES1	1	GROUP	1 ****	RES
