# created with PyMOL 2.5.2
@<TRIPOS>MOLECULE
BRAF_6H0G_E3ligase
20 22 1                 
SMALL
USER_CHARGES
@<TRIPOS>ATOM
1	  N8	1.981	54.445	-85.613	N.pl3	1	RES1	0.000	
2	  N9	1.727	51.788	-82.102	N.2	1	RES1	0.000	
3	  O9	2.815	53.745	-82.842	O.2	1	RES1	0.000	
4	 N10	2.005	50.051	-78.865	N.pl3	1	RES1	0.000	
5	 O10	3.680	49.690	-77.410	O.2	1	RES1	0.000	
6	 O11	0.215	50.429	-80.224	O.2	1	RES1	0.000	
7	 O12	0.436	49.834	-82.257	O.2	1	RES1	0.000	
8	 C34	1.331	53.209	-85.450	C.2	1	RES1	0.000	
9	 C35	0.525	52.665	-86.475	C.2	1	RES1	0.000	
10	 C36	-0.196	51.477	-86.274	C.2	1	RES1	0.000	
11	 C37	-0.118	50.776	-85.079	C.2	1	RES1	0.000	
12	 C38	0.668	51.332	-84.058	C.2	1	RES1	0.000	
13	 C39	1.343	52.500	-84.248	C.2	1	RES1	0.000	
14	 C40	2.065	52.791	-82.984	C.2	1	RES1	0.000	
15	 C41	2.231	51.651	-80.739	C.3	1	RES1	0.000	
16	 C42	3.703	51.255	-80.652	C.3	1	RES1	0.000	
17	 C43	4.144	51.186	-79.216	C.3	1	RES1	0.000	
18	 C44	3.282	50.239	-78.420	C.2	1	RES1	0.000	
19	 C45	1.386	50.648	-79.952	C.2	1	RES1	0.000	
20	 C46	0.902	50.882	-82.705	C.2	1	RES1	0.000	
@<TRIPOS>BOND
1 4 18 1
2 4 19 1
3 5 18 2
4 6 19 2
5 7 20 2
6 1 8 1
7 8 9 ar
8 8 13 ar
9 9 10 ar
10 10 11 ar
11 11 12 ar
12 12 13 ar
13 12 20 ar
14 13 14 ar
15 2 14 ar
16 3 14 2
17 2 15 1
18 15 16 1
19 15 19 1
20 16 17 1
21 17 18 1
22 2 20 ar
@<TRIPOS>SUBSTRUCTURE
1	RES1	1	GROUP	1 ****	RES
