# created with PyMOL 2.5.2
@<TRIPOS>MOLECULE
BRAF_6H0G_E3ligase
20 22 1                 
SMALL
USER_CHARGES
@<TRIPOS>ATOM
1	  N8	1.970	54.471	-85.593	N.pl3	1	RES1	0.000	
2	  N9	1.716	51.794	-82.116	N.2	1	RES1	0.000	
3	  O9	2.803	53.742	-82.837	O.2	1	RES1	0.000	
4	 N10	1.994	50.074	-78.854	N.pl3	1	RES1	0.000	
5	 O10	3.689	49.676	-77.413	O.2	1	RES1	0.000	
6	 O11	0.194	50.465	-80.193	O.2	1	RES1	0.000	
7	 O12	0.434	49.814	-82.244	O.2	1	RES1	0.000	
8	 C34	1.329	53.195	-85.454	C.2	1	RES1	0.000	
9	 C35	0.524	52.684	-86.460	C.2	1	RES1	0.000	
10	 C36	-0.174	51.464	-86.303	C.2	1	RES1	0.000	
11	 C37	-0.093	50.778	-85.078	C.2	1	RES1	0.000	
12	 C38	0.664	51.326	-84.067	C.2	1	RES1	0.000	
13	 C39	1.359	52.502	-84.248	C.2	1	RES1	0.000	
14	 C40	2.040	52.785	-82.980	C.2	1	RES1	0.000	
15	 C41	2.233	51.649	-80.745	C.3	1	RES1	0.000	
16	 C42	3.720	51.254	-80.684	C.3	1	RES1	0.000	
17	 C43	4.146	51.168	-79.242	C.3	1	RES1	0.000	
18	 C44	3.293	50.231	-78.420	C.2	1	RES1	0.000	
19	 C45	1.380	50.671	-79.938	C.2	1	RES1	0.000	
20	 C46	0.903	50.849	-82.697	C.2	1	RES1	0.000	
@<TRIPOS>BOND
1 4 18 1
2 4 19 1
3 5 18 2
4 6 19 2
5 7 20 2
6 1 8 1
7 8 9 ar
8 8 13 ar
9 9 10 ar
10 10 11 ar
11 11 12 ar
12 12 13 ar
13 12 20 ar
14 13 14 ar
15 2 14 ar
16 3 14 2
17 2 15 1
18 15 16 1
19 15 19 1
20 16 17 1
21 17 18 1
22 2 20 ar
@<TRIPOS>SUBSTRUCTURE
1	RES1	1	GROUP	1 ****	RES
