# created with PyMOL 2.5.2
@<TRIPOS>MOLECULE
BRD4_4TZ4_E3ligase
19 21 1                 
SMALL
USER_CHARGES
@<TRIPOS>ATOM
1	  N5	-46.213	59.150	-98.090	N.pl3	1	RES1	0.000	
2	  N6	-45.199	55.253	-96.275	N.2	1	RES1	0.000	
3	  N7	-44.946	51.700	-95.172	N.pl3	1	RES1	0.000	
4	  O8	-46.465	50.071	-94.863	O.2	1	RES1	0.000	
5	  O9	-43.342	53.289	-95.473	O.2	1	RES1	0.000	
6	 O10	-43.688	55.209	-94.472	O.2	1	RES1	0.000	
7	 C30	-45.418	58.839	-97.005	C.2	1	RES1	0.000	
8	 C31	-44.643	59.830	-96.373	C.2	1	RES1	0.000	
9	 C32	-43.766	59.526	-95.298	C.2	1	RES1	0.000	
10	 C33	-43.615	58.204	-94.890	C.2	1	RES1	0.000	
11	 C34	-44.330	57.232	-95.569	C.2	1	RES1	0.000	
12	 C35	-45.202	57.532	-96.595	C.2	1	RES1	0.000	
13	 C36	-45.814	56.259	-97.107	C.2	1	RES1	0.000	
14	 C37	-45.566	53.811	-96.335	C.3	1	RES1	0.000	
15	 C38	-46.956	53.525	-95.769	C.3	1	RES1	0.000	
16	 C39	-47.262	52.068	-95.917	C.3	1	RES1	0.000	
17	 C40	-46.218	51.185	-95.257	C.2	1	RES1	0.000	
18	 C41	-44.516	52.957	-95.617	C.2	1	RES1	0.000	
19	 C42	-44.363	55.783	-95.350	C.2	1	RES1	0.000	
@<TRIPOS>BOND
1 6 19 2
2 1 7 1
3 7 8 ar
4 7 12 ar
5 8 9 ar
6 9 10 ar
7 10 11 ar
8 11 12 ar
9 11 19 ar
10 12 13 ar
11 2 13 ar
12 2 14 1
13 14 15 1
14 14 18 1
15 15 16 1
16 16 17 1
17 3 17 1
18 4 17 2
19 3 18 1
20 5 18 2
21 2 19 ar
@<TRIPOS>SUBSTRUCTURE
1	RES1	1	GROUP	1 ****	RES
