# created with PyMOL 2.5.2
@<TRIPOS>MOLECULE
BRD4_4TZ4_E3ligase
19 21 1                 
SMALL
USER_CHARGES
@<TRIPOS>ATOM
1	  N5	-46.254	59.151	-98.082	N.pl3	1	RES1	0.000	
2	  N6	-45.176	55.254	-96.272	N.2	1	RES1	0.000	
3	  N7	-44.964	51.721	-95.192	N.pl3	1	RES1	0.000	
4	  O9	-46.498	50.067	-94.864	O.2	1	RES1	0.000	
5	 O10	-43.344	53.303	-95.446	O.2	1	RES1	0.000	
6	 O11	-43.675	55.230	-94.465	O.2	1	RES1	0.000	
7	 C32	-45.357	58.815	-97.023	C.2	1	RES1	0.000	
8	 C33	-44.689	59.850	-96.350	C.2	1	RES1	0.000	
9	 C34	-43.814	59.538	-95.288	C.2	1	RES1	0.000	
10	 C35	-43.607	58.207	-94.884	C.2	1	RES1	0.000	
11	 C36	-44.325	57.225	-95.583	C.2	1	RES1	0.000	
12	 C37	-45.181	57.496	-96.614	C.2	1	RES1	0.000	
13	 C38	-45.786	56.251	-97.138	C.2	1	RES1	0.000	
14	 C39	-45.545	53.810	-96.322	C.3	1	RES1	0.000	
15	 C40	-46.950	53.527	-95.774	C.3	1	RES1	0.000	
16	 C41	-47.285	52.057	-95.926	C.3	1	RES1	0.000	
17	 C42	-46.231	51.187	-95.257	C.2	1	RES1	0.000	
18	 C43	-44.507	52.954	-95.598	C.2	1	RES1	0.000	
19	 C44	-44.336	55.781	-95.348	C.2	1	RES1	0.000	
@<TRIPOS>BOND
1 5 18 2
2 6 19 2
3 1 7 1
4 7 8 ar
5 7 12 ar
6 8 9 ar
7 9 10 ar
8 10 11 ar
9 11 12 ar
10 11 19 ar
11 12 13 ar
12 2 13 ar
13 2 14 1
14 14 15 1
15 14 18 1
16 15 16 1
17 16 17 1
18 3 17 1
19 4 17 2
20 3 18 1
21 2 19 ar
@<TRIPOS>SUBSTRUCTURE
1	RES1	1	GROUP	1 ****	RES
