# created with PyMOL 2.5.2
@<TRIPOS>MOLECULE
BRD4_4TZ4_E3ligase
19 21 1                 
SMALL
USER_CHARGES
@<TRIPOS>ATOM
1	  N5	-46.228	59.173	-98.086	N.pl3	1	RES1	0.000	
2	  N6	-45.217	55.233	-96.253	N.2	1	RES1	0.000	
3	  N7	-44.942	51.721	-95.160	N.pl3	1	RES1	0.000	
4	 O10	-46.461	50.065	-94.869	O.2	1	RES1	0.000	
5	 O11	-43.355	53.301	-95.453	O.2	1	RES1	0.000	
6	 O12	-43.683	55.210	-94.477	O.2	1	RES1	0.000	
7	 C34	-45.410	58.828	-97.001	C.2	1	RES1	0.000	
8	 C35	-44.619	59.822	-96.377	C.2	1	RES1	0.000	
9	 C36	-43.767	59.543	-95.319	C.2	1	RES1	0.000	
10	 C37	-43.584	58.213	-94.908	C.2	1	RES1	0.000	
11	 C38	-44.330	57.238	-95.565	C.2	1	RES1	0.000	
12	 C39	-45.229	57.509	-96.594	C.2	1	RES1	0.000	
13	 C40	-45.824	56.253	-97.098	C.2	1	RES1	0.000	
14	 C41	-45.577	53.832	-96.317	C.3	1	RES1	0.000	
15	 C42	-46.962	53.521	-95.775	C.3	1	RES1	0.000	
16	 C43	-47.253	52.047	-95.945	C.3	1	RES1	0.000	
17	 C44	-46.209	51.183	-95.280	C.2	1	RES1	0.000	
18	 C45	-44.517	52.947	-95.606	C.2	1	RES1	0.000	
19	 C46	-44.356	55.786	-95.342	C.2	1	RES1	0.000	
@<TRIPOS>BOND
1 4 17 2
2 5 18 2
3 6 19 2
4 1 7 1
5 7 8 ar
6 7 12 ar
7 8 9 ar
8 9 10 ar
9 10 11 ar
10 11 12 ar
11 11 19 ar
12 12 13 ar
13 2 13 ar
14 2 14 1
15 14 15 1
16 14 18 1
17 15 16 1
18 16 17 1
19 3 17 1
20 3 18 1
21 2 19 ar
@<TRIPOS>SUBSTRUCTURE
1	RES1	1	GROUP	1 ****	RES
