# created with PyMOL 2.5.2
@<TRIPOS>MOLECULE
BRD4_4TZ4_E3ligase
19 21 1                 
SMALL
USER_CHARGES
@<TRIPOS>ATOM
1	  N5	-46.219	59.173	-98.096	N.pl3	1	RES1	0.000	
2	  N6	-45.232	55.243	-96.298	N.2	1	RES1	0.000	
3	  N7	-44.947	51.744	-95.158	N.pl3	1	RES1	0.000	
4	 O11	-46.424	50.084	-94.805	O.2	1	RES1	0.000	
5	 O12	-43.345	53.328	-95.465	O.2	1	RES1	0.000	
6	 O13	-43.699	55.188	-94.503	O.2	1	RES1	0.000	
7	 C36	-45.389	58.845	-97.011	C.2	1	RES1	0.000	
8	 C37	-44.617	59.824	-96.358	C.2	1	RES1	0.000	
9	 C38	-43.751	59.518	-95.292	C.2	1	RES1	0.000	
10	 C39	-43.606	58.189	-94.896	C.2	1	RES1	0.000	
11	 C40	-44.329	57.217	-95.548	C.2	1	RES1	0.000	
12	 C41	-45.214	57.515	-96.584	C.2	1	RES1	0.000	
13	 C42	-45.829	56.270	-97.123	C.2	1	RES1	0.000	
14	 C43	-45.578	53.812	-96.359	C.3	1	RES1	0.000	
15	 C44	-46.980	53.521	-95.802	C.3	1	RES1	0.000	
16	 C45	-47.243	52.025	-95.908	C.3	1	RES1	0.000	
17	 C46	-46.208	51.183	-95.248	C.2	1	RES1	0.000	
18	 C47	-44.538	52.990	-95.608	C.2	1	RES1	0.000	
19	 C48	-44.371	55.757	-95.362	C.2	1	RES1	0.000	
@<TRIPOS>BOND
1 4 17 2
2 5 18 2
3 6 19 2
4 1 7 1
5 7 8 ar
6 7 12 ar
7 8 9 ar
8 9 10 ar
9 10 11 ar
10 11 12 ar
11 11 19 ar
12 12 13 ar
13 2 13 ar
14 2 14 1
15 14 15 1
16 14 18 1
17 15 16 1
18 16 17 1
19 3 17 1
20 3 18 1
21 2 19 ar
@<TRIPOS>SUBSTRUCTURE
1	RES1	1	GROUP	1 ****	RES
