# created with PyMOL 2.5.2
@<TRIPOS>MOLECULE
EGFR_4TZ4_E3ligase
19 21 1                 
SMALL
USER_CHARGES
@<TRIPOS>ATOM
1	  O6	-46.473	50.077	-94.839	O.2	1	RES1	0.000	
2	  O7	-43.360	53.282	-95.467	O.2	1	RES1	0.000	
3	  N8	-46.260	59.144	-98.079	N.pl3	1	RES1	0.000	
4	  O8	-43.698	55.212	-94.466	O.2	1	RES1	0.000	
5	  N9	-45.195	55.233	-96.285	N.2	1	RES1	0.000	
6	 N10	-44.952	51.725	-95.188	N.pl3	1	RES1	0.000	
7	 C34	-45.351	58.830	-97.060	C.2	1	RES1	0.000	
8	 C35	-44.672	59.820	-96.330	C.2	1	RES1	0.000	
9	 C36	-43.811	59.537	-95.273	C.2	1	RES1	0.000	
10	 C37	-43.609	58.220	-94.895	C.2	1	RES1	0.000	
11	 C38	-44.319	57.222	-95.562	C.2	1	RES1	0.000	
12	 C39	-45.167	57.501	-96.611	C.2	1	RES1	0.000	
13	 C40	-45.810	56.256	-97.138	C.2	1	RES1	0.000	
14	 C41	-45.551	53.833	-96.336	C.3	1	RES1	0.000	
15	 C42	-46.947	53.534	-95.779	C.3	1	RES1	0.000	
16	 C43	-47.281	52.042	-95.928	C.3	1	RES1	0.000	
17	 C44	-46.226	51.202	-95.250	C.2	1	RES1	0.000	
18	 C45	-44.510	52.973	-95.608	C.2	1	RES1	0.000	
19	 C46	-44.330	55.782	-95.332	C.2	1	RES1	0.000	
@<TRIPOS>BOND
1 6 17 1
2 6 18 1
3 3 7 1
4 7 8 ar
5 7 12 ar
6 8 9 ar
7 9 10 ar
8 10 11 ar
9 11 12 ar
10 11 19 ar
11 12 13 ar
12 5 13 ar
13 5 14 1
14 14 15 1
15 14 18 1
16 15 16 1
17 16 17 1
18 1 17 2
19 2 18 2
20 4 19 2
21 5 19 ar
@<TRIPOS>SUBSTRUCTURE
1	RES1	1	GROUP	1 ****	RES
