# created with PyMOL 2.5.2
@<TRIPOS>MOLECULE
EGFR_4TZ4_E3ligase
19 21 1                 
SMALL
USER_CHARGES
@<TRIPOS>ATOM
1	  O7	-46.481	50.044	-94.873	O.2	1	RES1	0.000	
2	  N8	-46.220	59.142	-98.109	N.pl3	1	RES1	0.000	
3	  O8	-43.356	53.276	-95.494	O.2	1	RES1	0.000	
4	  N9	-45.204	55.230	-96.269	N.2	1	RES1	0.000	
5	  O9	-43.686	55.230	-94.469	O.2	1	RES1	0.000	
6	 N10	-44.951	51.703	-95.200	N.pl3	1	RES1	0.000	
7	 C36	-45.382	58.840	-96.989	C.2	1	RES1	0.000	
8	 C37	-44.654	59.825	-96.376	C.2	1	RES1	0.000	
9	 C38	-43.779	59.524	-95.317	C.2	1	RES1	0.000	
10	 C39	-43.613	58.221	-94.896	C.2	1	RES1	0.000	
11	 C40	-44.351	57.242	-95.560	C.2	1	RES1	0.000	
12	 C41	-45.200	57.520	-96.592	C.2	1	RES1	0.000	
13	 C42	-45.814	56.267	-97.100	C.2	1	RES1	0.000	
14	 C43	-45.567	53.812	-96.325	C.3	1	RES1	0.000	
15	 C44	-46.928	53.529	-95.766	C.3	1	RES1	0.000	
16	 C45	-47.263	52.068	-95.929	C.3	1	RES1	0.000	
17	 C46	-46.216	51.206	-95.259	C.2	1	RES1	0.000	
18	 C47	-44.516	52.957	-95.600	C.2	1	RES1	0.000	
19	 C48	-44.342	55.789	-95.302	C.2	1	RES1	0.000	
@<TRIPOS>BOND
1 6 17 1
2 6 18 1
3 2 7 1
4 7 8 ar
5 7 12 ar
6 8 9 ar
7 9 10 ar
8 10 11 ar
9 11 12 ar
10 11 19 ar
11 12 13 ar
12 4 13 ar
13 4 14 1
14 14 15 1
15 14 18 1
16 15 16 1
17 16 17 1
18 1 17 2
19 3 18 2
20 4 19 ar
21 5 19 2
@<TRIPOS>SUBSTRUCTURE
1	RES1	1	GROUP	1 ****	RES
