# created with PyMOL 2.5.2
@<TRIPOS>MOLECULE
EGFR_4TZ4_E3ligase
19 21 1                 
SMALL
USER_CHARGES
@<TRIPOS>ATOM
1	  N8	-46.242	59.132	-98.120	N.pl3	1	RES1	0.000	
2	  O8	-46.477	50.025	-94.941	O.2	1	RES1	0.000	
3	  N9	-45.184	55.258	-96.199	N.2	1	RES1	0.000	
4	  O9	-43.356	53.277	-95.453	O.2	1	RES1	0.000	
5	 N10	-44.967	51.706	-95.207	N.pl3	1	RES1	0.000	
6	 O10	-43.674	55.256	-94.457	O.2	1	RES1	0.000	
7	 C38	-45.415	58.825	-97.013	C.2	1	RES1	0.000	
8	 C39	-44.660	59.821	-96.396	C.2	1	RES1	0.000	
9	 C40	-43.754	59.573	-95.341	C.2	1	RES1	0.000	
10	 C41	-43.575	58.225	-94.895	C.2	1	RES1	0.000	
11	 C42	-44.334	57.265	-95.563	C.2	1	RES1	0.000	
12	 C43	-45.210	57.505	-96.587	C.2	1	RES1	0.000	
13	 C44	-45.798	56.255	-97.074	C.2	1	RES1	0.000	
14	 C45	-45.560	53.832	-96.269	C.3	1	RES1	0.000	
15	 C46	-46.964	53.520	-95.744	C.3	1	RES1	0.000	
16	 C47	-47.271	52.048	-95.935	C.3	1	RES1	0.000	
17	 C48	-46.222	51.155	-95.318	C.2	1	RES1	0.000	
18	 C49	-44.529	52.951	-95.600	C.2	1	RES1	0.000	
19	 C50	-44.330	55.794	-95.313	C.2	1	RES1	0.000	
@<TRIPOS>BOND
1 5 17 1
2 5 18 1
3 6 19 2
4 1 7 1
5 7 8 ar
6 7 12 ar
7 8 9 ar
8 9 10 ar
9 10 11 ar
10 11 12 ar
11 11 19 ar
12 12 13 ar
13 3 13 ar
14 3 14 1
15 14 15 1
16 14 18 1
17 15 16 1
18 16 17 1
19 2 17 2
20 4 18 2
21 3 19 ar
@<TRIPOS>SUBSTRUCTURE
1	RES1	1	GROUP	1 ****	RES
