# created with PyMOL 2.5.2
@<TRIPOS>MOLECULE
BRD2_6H0G_E3ligase
20 22 1                 
SMALL
USER_CHARGES
@<TRIPOS>ATOM
1	  O5	2.876	53.712	-82.878	O.2	1	RES1	0.000	
2	  N6	1.982	54.437	-85.608	N.pl3	1	RES1	0.000	
3	  O6	3.680	49.739	-77.383	O.2	1	RES1	0.000	
4	  N7	1.744	51.751	-82.116	N.2	1	RES1	0.000	
5	  O7	0.202	50.415	-80.200	O.2	1	RES1	0.000	
6	  N8	1.976	50.098	-78.844	N.pl3	1	RES1	0.000	
7	  O8	0.432	49.796	-82.279	O.2	1	RES1	0.000	
8	 C22	1.344	53.207	-85.464	C.2	1	RES1	0.000	
9	 C23	0.501	52.697	-86.445	C.2	1	RES1	0.000	
10	 C24	-0.207	51.494	-86.279	C.2	1	RES1	0.000	
11	 C25	-0.146	50.819	-85.084	C.2	1	RES1	0.000	
12	 C26	0.637	51.361	-84.051	C.2	1	RES1	0.000	
13	 C27	1.340	52.487	-84.249	C.2	1	RES1	0.000	
14	 C28	2.080	52.765	-83.003	C.2	1	RES1	0.000	
15	 C29	2.262	51.627	-80.762	C.3	1	RES1	0.000	
16	 C30	3.723	51.242	-80.657	C.3	1	RES1	0.000	
17	 C31	4.161	51.184	-79.192	C.3	1	RES1	0.000	
18	 C32	3.271	50.253	-78.377	C.2	1	RES1	0.000	
19	 C33	1.368	50.649	-79.961	C.2	1	RES1	0.000	
20	 C34	0.899	50.859	-82.733	C.2	1	RES1	0.000	
@<TRIPOS>BOND
1 2 8 1
2 8 9 ar
3 8 13 ar
4 9 10 ar
5 10 11 ar
6 11 12 ar
7 12 13 ar
8 12 20 ar
9 13 14 ar
10 1 14 2
11 4 14 ar
12 4 15 1
13 15 16 1
14 15 19 1
15 16 17 1
16 17 18 1
17 3 18 2
18 6 18 1
19 5 19 2
20 6 19 1
21 4 20 ar
22 7 20 2
@<TRIPOS>SUBSTRUCTURE
1	RES1	1	GROUP	1 ****	RES
