# created with PyMOL 2.5.2
@<TRIPOS>MOLECULE
BRD2_6H0G_E3ligase
20 22 1                 
SMALL
USER_CHARGES
@<TRIPOS>ATOM
1	  O2	2.792	53.728	-82.820	O.2	1	RES1	0.000	
2	  O3	3.714	49.733	-77.399	O.2	1	RES1	0.000	
3	  O4	0.190	50.475	-80.119	O.2	1	RES1	0.000	
4	  O5	0.423	49.796	-82.285	O.2	1	RES1	0.000	
5	  N6	1.967	54.449	-85.567	N.pl3	1	RES1	0.000	
6	  N7	1.692	51.754	-82.135	N.2	1	RES1	0.000	
7	  N8	1.992	50.115	-78.820	N.pl3	1	RES1	0.000	
8	 C15	1.323	53.191	-85.434	C.2	1	RES1	0.000	
9	 C16	0.530	52.716	-86.472	C.2	1	RES1	0.000	
10	 C17	-0.151	51.504	-86.304	C.2	1	RES1	0.000	
11	 C18	-0.078	50.775	-85.114	C.2	1	RES1	0.000	
12	 C19	0.658	51.315	-84.098	C.2	1	RES1	0.000	
13	 C20	1.334	52.502	-84.253	C.2	1	RES1	0.000	
14	 C21	2.055	52.774	-82.997	C.2	1	RES1	0.000	
15	 C22	2.233	51.610	-80.750	C.3	1	RES1	0.000	
16	 C23	3.716	51.193	-80.706	C.3	1	RES1	0.000	
17	 C24	4.165	51.173	-79.239	C.3	1	RES1	0.000	
18	 C25	3.305	50.254	-78.411	C.2	1	RES1	0.000	
19	 C26	1.375	50.697	-79.930	C.2	1	RES1	0.000	
20	 C27	0.890	50.838	-82.713	C.2	1	RES1	0.000	
@<TRIPOS>BOND
1 1 14 2
2 5 8 1
3 8 9 ar
4 8 13 ar
5 9 10 ar
6 10 11 ar
7 11 12 ar
8 12 13 ar
9 12 20 ar
10 13 14 ar
11 6 14 ar
12 6 15 1
13 15 16 1
14 15 19 1
15 16 17 1
16 17 18 1
17 2 18 2
18 7 18 1
19 3 19 2
20 7 19 1
21 4 20 2
22 6 20 ar
@<TRIPOS>SUBSTRUCTURE
1	RES1	1	GROUP	1 ****	RES
