# created with PyMOL 2.5.2
@<TRIPOS>MOLECULE
BRD4_6H0G_E3ligase
20 22 1                 
SMALL
USER_CHARGES
@<TRIPOS>ATOM
1	  O5	2.770	53.727	-82.800	O.2	1	RES1	0.000	
2	  N6	2.096	54.365	-85.605	N.pl3	1	RES1	0.000	
3	  O6	3.690	49.733	-77.397	O.2	1	RES1	0.000	
4	  N7	1.748	51.719	-82.129	N.2	1	RES1	0.000	
5	  O7	0.233	50.361	-80.241	O.2	1	RES1	0.000	
6	  N8	2.007	50.046	-78.864	N.pl3	1	RES1	0.000	
7	  O8	0.342	49.829	-82.262	O.2	1	RES1	0.000	
8	 C22	1.308	53.237	-85.445	C.2	1	RES1	0.000	
9	 C23	0.543	52.686	-86.449	C.2	1	RES1	0.000	
10	 C24	-0.204	51.530	-86.309	C.2	1	RES1	0.000	
11	 C25	-0.145	50.811	-85.085	C.2	1	RES1	0.000	
12	 C26	0.632	51.328	-84.071	C.2	1	RES1	0.000	
13	 C27	1.343	52.496	-84.238	C.2	1	RES1	0.000	
14	 C28	2.072	52.760	-82.991	C.2	1	RES1	0.000	
15	 C29	2.246	51.633	-80.751	C.3	1	RES1	0.000	
16	 C30	3.713	51.328	-80.652	C.3	1	RES1	0.000	
17	 C31	4.134	51.281	-79.180	C.3	1	RES1	0.000	
18	 C32	3.305	50.276	-78.399	C.2	1	RES1	0.000	
19	 C33	1.421	50.624	-79.980	C.2	1	RES1	0.000	
20	 C34	0.872	50.823	-82.716	C.2	1	RES1	0.000	
@<TRIPOS>BOND
1 2 8 1
2 8 9 ar
3 8 13 ar
4 9 10 ar
5 10 11 ar
6 11 12 ar
7 12 13 ar
8 12 20 ar
9 13 14 ar
10 1 14 2
11 4 14 ar
12 4 15 1
13 15 16 1
14 15 19 1
15 16 17 1
16 17 18 1
17 3 18 2
18 6 18 1
19 5 19 2
20 6 19 1
21 4 20 ar
22 7 20 2
@<TRIPOS>SUBSTRUCTURE
1	RES1	1	GROUP	1 ****	RES
