# created with PyMOL 2.5.2
@<TRIPOS>MOLECULE
BTK_6H0G_E3ligase
20 22 1                 
SMALL
USER_CHARGES
@<TRIPOS>ATOM
1	  O6	2.838	53.763	-82.870	O.2	1	RES1	0.000	
2	  N7	1.968	54.457	-85.611	N.pl3	1	RES1	0.000	
3	  O7	3.656	49.643	-77.417	O.3	1	RES1	0.000	
4	  N8	1.760	51.804	-82.106	N.2	1	RES1	0.000	
5	  O8	0.216	50.456	-80.262	O.2	1	RES1	0.000	
6	  N9	1.967	50.044	-78.899	N.pl3	1	RES1	0.000	
7	  O9	0.445	49.852	-82.222	O.2	1	RES1	0.000	
8	 C39	1.333	53.207	-85.447	C.2	1	RES1	0.000	
9	 C40	0.503	52.656	-86.452	C.2	1	RES1	0.000	
10	 C41	-0.194	51.455	-86.266	C.2	1	RES1	0.000	
11	 C42	-0.134	50.775	-85.038	C.2	1	RES1	0.000	
12	 C43	0.656	51.333	-84.047	C.2	1	RES1	0.000	
13	 C44	1.339	52.499	-84.242	C.2	1	RES1	0.000	
14	 C45	2.076	52.785	-83.011	C.2	1	RES1	0.000	
15	 C46	2.255	51.666	-80.739	C.3	1	RES1	0.000	
16	 C47	3.731	51.269	-80.653	C.3	1	RES1	0.000	
17	 C48	4.135	51.185	-79.191	C.3	1	RES1	0.000	
18	 C49	3.257	50.212	-78.430	C.3	1	RES1	0.000	
19	 C50	1.385	50.651	-79.985	C.2	1	RES1	0.000	
20	 C51	0.934	50.879	-82.677	C.2	1	RES1	0.000	
@<TRIPOS>BOND
1 2 8 1
2 8 9 ar
3 8 13 ar
4 9 10 ar
5 10 11 ar
6 11 12 ar
7 12 13 ar
8 12 20 ar
9 13 14 ar
10 1 14 2
11 4 14 ar
12 4 15 1
13 15 16 1
14 15 19 1
15 16 17 1
16 17 18 1
17 3 18 1
18 6 18 1
19 5 19 2
20 6 19 1
21 4 20 ar
22 7 20 2
@<TRIPOS>SUBSTRUCTURE
1	RES1	1	GROUP	1 ****	RES
