# created with PyMOL 2.5.2
@<TRIPOS>MOLECULE
PARP1_6H0G_E3ligase
20 22 1                 
SMALL
USER_CHARGES
@<TRIPOS>ATOM
1	  O2	2.848	53.723	-82.864	O.2	1	RES1	0.000	
2	  N3	2.001	54.437	-85.636	N.pl3	1	RES1	0.000	
3	  O3	3.656	49.667	-77.399	O.3	1	RES1	0.000	
4	  N4	1.750	51.777	-82.125	N.2	1	RES1	0.000	
5	  O4	0.223	50.407	-80.273	O.2	1	RES1	0.000	
6	  N5	1.990	50.054	-78.881	N.pl3	1	RES1	0.000	
7	  O5	0.424	49.842	-82.226	O.2	1	RES1	0.000	
8	 C12	1.320	53.209	-85.457	C.2	1	RES1	0.000	
9	 C13	0.520	52.675	-86.448	C.2	1	RES1	0.000	
10	 C14	-0.214	51.481	-86.265	C.2	1	RES1	0.000	
11	 C15	-0.150	50.781	-85.063	C.2	1	RES1	0.000	
12	 C16	0.641	51.353	-84.069	C.2	1	RES1	0.000	
13	 C17	1.348	52.497	-84.230	C.2	1	RES1	0.000	
14	 C18	2.071	52.782	-82.990	C.2	1	RES1	0.000	
15	 C19	2.255	51.648	-80.734	C.3	1	RES1	0.000	
16	 C20	3.735	51.287	-80.640	C.3	1	RES1	0.000	
17	 C21	4.149	51.218	-79.186	C.3	1	RES1	0.000	
18	 C22	3.255	50.244	-78.387	C.3	1	RES1	0.000	
19	 C23	1.404	50.629	-79.993	C.2	1	RES1	0.000	
20	 C24	0.900	50.881	-82.701	C.2	1	RES1	0.000	
@<TRIPOS>BOND
1 2 8 1
2 8 9 ar
3 8 13 ar
4 9 10 ar
5 10 11 ar
6 11 12 ar
7 12 13 ar
8 12 20 ar
9 13 14 ar
10 1 14 2
11 4 14 ar
12 4 15 1
13 15 16 1
14 15 19 1
15 16 17 1
16 17 18 1
17 3 18 1
18 6 18 1
19 5 19 2
20 6 19 1
21 4 20 ar
22 7 20 2
@<TRIPOS>SUBSTRUCTURE
1	RES1	1	GROUP	1 ****	RES
