# created with PyMOL 2.5.2
@<TRIPOS>MOLECULE
PARP1_6H0G_E3ligase
20 22 1                 
SMALL
USER_CHARGES
@<TRIPOS>ATOM
1	  N3	1.968	54.440	-85.589	N.pl3	1	RES1	0.000	
2	  O3	2.798	53.751	-82.834	O.2	1	RES1	0.000	
3	  N4	1.742	51.779	-82.114	N.2	1	RES1	0.000	
4	  O4	3.685	49.670	-77.413	O.2	1	RES1	0.000	
5	  N5	1.995	50.086	-78.870	N.pl3	1	RES1	0.000	
6	  O5	0.193	50.477	-80.214	O.2	1	RES1	0.000	
7	  O6	0.445	49.814	-82.276	O.2	1	RES1	0.000	
8	 C14	1.341	53.206	-85.433	C.2	1	RES1	0.000	
9	 C15	0.536	52.673	-86.471	C.2	1	RES1	0.000	
10	 C16	-0.186	51.484	-86.296	C.2	1	RES1	0.000	
11	 C17	-0.148	50.780	-85.061	C.2	1	RES1	0.000	
12	 C18	0.662	51.321	-84.068	C.2	1	RES1	0.000	
13	 C19	1.354	52.508	-84.237	C.2	1	RES1	0.000	
14	 C20	2.058	52.782	-82.983	C.2	1	RES1	0.000	
15	 C21	2.246	51.637	-80.762	C.3	1	RES1	0.000	
16	 C22	3.727	51.260	-80.667	C.3	1	RES1	0.000	
17	 C23	4.156	51.183	-79.206	C.3	1	RES1	0.000	
18	 C24	3.273	50.234	-78.420	C.2	1	RES1	0.000	
19	 C25	1.389	50.679	-79.934	C.2	1	RES1	0.000	
20	 C26	0.891	50.827	-82.718	C.2	1	RES1	0.000	
@<TRIPOS>BOND
1 1 8 1
2 8 9 ar
3 8 13 ar
4 9 10 ar
5 10 11 ar
6 11 12 ar
7 12 13 ar
8 12 20 ar
9 13 14 ar
10 2 14 2
11 3 14 ar
12 3 15 1
13 15 16 1
14 15 19 1
15 16 17 1
16 17 18 1
17 4 18 2
18 5 18 1
19 5 19 1
20 6 19 2
21 3 20 ar
22 7 20 2
@<TRIPOS>SUBSTRUCTURE
1	RES1	1	GROUP	1 ****	RES
