# created with PyMOL 2.5.2
@<TRIPOS>MOLECULE
PARP1_6H0G_E3ligase
20 22 1                 
SMALL
USER_CHARGES
@<TRIPOS>ATOM
1	  N3	2.111	54.360	-85.614	N.pl3	1	RES1	0.000	
2	  N4	1.727	51.733	-82.111	N.2	1	RES1	0.000	
3	  O4	2.782	53.739	-82.796	O.2	1	RES1	0.000	
4	  N5	2.063	50.023	-78.877	N.pl3	1	RES1	0.000	
5	  O5	3.743	49.732	-77.403	O.2	1	RES1	0.000	
6	  O6	0.239	50.307	-80.246	O.2	1	RES1	0.000	
7	  O7	0.305	49.847	-82.265	O.2	1	RES1	0.000	
8	 C16	1.323	53.233	-85.419	C.2	1	RES1	0.000	
9	 C17	0.575	52.686	-86.462	C.2	1	RES1	0.000	
10	 C18	-0.189	51.491	-86.312	C.2	1	RES1	0.000	
11	 C19	-0.156	50.809	-85.101	C.2	1	RES1	0.000	
12	 C20	0.628	51.348	-84.087	C.2	1	RES1	0.000	
13	 C21	1.351	52.494	-84.233	C.2	1	RES1	0.000	
14	 C22	2.029	52.750	-82.981	C.2	1	RES1	0.000	
15	 C23	2.222	51.655	-80.736	C.3	1	RES1	0.000	
16	 C24	3.714	51.354	-80.622	C.3	1	RES1	0.000	
17	 C25	4.110	51.329	-79.174	C.3	1	RES1	0.000	
18	 C26	3.284	50.282	-78.415	C.2	1	RES1	0.000	
19	 C27	1.408	50.578	-79.985	C.2	1	RES1	0.000	
20	 C28	0.856	50.841	-82.725	C.2	1	RES1	0.000	
@<TRIPOS>BOND
1 1 8 1
2 8 9 ar
3 8 13 ar
4 9 10 ar
5 10 11 ar
6 11 12 ar
7 12 13 ar
8 12 20 ar
9 13 14 ar
10 2 14 ar
11 3 14 2
12 2 15 1
13 15 16 1
14 15 19 1
15 16 17 1
16 17 18 1
17 4 18 1
18 5 18 2
19 4 19 1
20 6 19 2
21 2 20 ar
22 7 20 2
@<TRIPOS>SUBSTRUCTURE
1	RES1	1	GROUP	1 ****	RES
