# created with PyMOL 2.5.2
@<TRIPOS>MOLECULE
PARP1_6H0G_E3ligase
20 22 1                 
SMALL
USER_CHARGES
@<TRIPOS>ATOM
1	  N3	1.980	54.447	-85.586	N.pl3	1	RES1	0.000	
2	  N4	1.707	51.774	-82.094	N.2	1	RES1	0.000	
3	  N5	1.989	50.090	-78.846	N.pl3	1	RES1	0.000	
4	  O5	2.790	53.753	-82.827	O.2	1	RES1	0.000	
5	  O6	3.703	49.673	-77.412	O.2	1	RES1	0.000	
6	  O7	0.192	50.460	-80.167	O.2	1	RES1	0.000	
7	  O8	0.414	49.816	-82.270	O.2	1	RES1	0.000	
8	 C18	1.330	53.213	-85.460	C.2	1	RES1	0.000	
9	 C19	0.528	52.673	-86.482	C.2	1	RES1	0.000	
10	 C20	-0.153	51.462	-86.298	C.2	1	RES1	0.000	
11	 C21	-0.103	50.777	-85.089	C.2	1	RES1	0.000	
12	 C22	0.670	51.328	-84.075	C.2	1	RES1	0.000	
13	 C23	1.344	52.506	-84.229	C.2	1	RES1	0.000	
14	 C24	2.037	52.799	-82.973	C.2	1	RES1	0.000	
15	 C25	2.217	51.631	-80.734	C.3	1	RES1	0.000	
16	 C26	3.731	51.243	-80.688	C.3	1	RES1	0.000	
17	 C27	4.162	51.182	-79.226	C.3	1	RES1	0.000	
18	 C28	3.312	50.252	-78.439	C.2	1	RES1	0.000	
19	 C29	1.375	50.651	-79.958	C.2	1	RES1	0.000	
20	 C30	0.901	50.865	-82.714	C.2	1	RES1	0.000	
@<TRIPOS>BOND
1 1 8 1
2 8 9 ar
3 8 13 ar
4 9 10 ar
5 10 11 ar
6 11 12 ar
7 12 13 ar
8 12 20 ar
9 13 14 ar
10 2 14 ar
11 4 14 2
12 2 15 1
13 15 16 1
14 15 19 1
15 16 17 1
16 17 18 1
17 3 18 1
18 5 18 2
19 3 19 1
20 6 19 2
21 2 20 ar
22 7 20 2
@<TRIPOS>SUBSTRUCTURE
1	RES1	1	GROUP	1 ****	RES
