# created with PyMOL 2.5.2
@<TRIPOS>MOLECULE
PARP1_6H0G_E3ligase
20 22 1                 
SMALL
USER_CHARGES
@<TRIPOS>ATOM
1	  N3	1.963	54.451	-85.611	N.pl3	1	RES1	0.000	
2	  N4	1.732	51.787	-82.103	N.2	1	RES1	0.000	
3	  N5	1.996	50.062	-78.858	N.pl3	1	RES1	0.000	
4	  O6	2.816	53.740	-82.852	O.2	1	RES1	0.000	
5	  O7	3.687	49.677	-77.427	O.2	1	RES1	0.000	
6	  O8	0.196	50.450	-80.193	O.2	1	RES1	0.000	
7	  O9	0.445	49.819	-82.234	O.2	1	RES1	0.000	
8	 C20	1.325	53.196	-85.447	C.2	1	RES1	0.000	
9	 C21	0.529	52.679	-86.460	C.2	1	RES1	0.000	
10	 C22	-0.162	51.475	-86.267	C.2	1	RES1	0.000	
11	 C23	-0.111	50.765	-85.064	C.2	1	RES1	0.000	
12	 C24	0.650	51.325	-84.078	C.2	1	RES1	0.000	
13	 C25	1.360	52.517	-84.255	C.2	1	RES1	0.000	
14	 C26	2.062	52.806	-82.995	C.2	1	RES1	0.000	
15	 C27	2.239	51.644	-80.746	C.3	1	RES1	0.000	
16	 C28	3.714	51.254	-80.677	C.3	1	RES1	0.000	
17	 C29	4.142	51.181	-79.215	C.3	1	RES1	0.000	
18	 C30	3.280	50.228	-78.424	C.2	1	RES1	0.000	
19	 C31	1.364	50.661	-79.951	C.2	1	RES1	0.000	
20	 C32	0.898	50.875	-82.709	C.2	1	RES1	0.000	
@<TRIPOS>BOND
1 1 8 1
2 8 9 ar
3 8 13 ar
4 9 10 ar
5 10 11 ar
6 11 12 ar
7 12 13 ar
8 12 20 ar
9 13 14 ar
10 2 14 ar
11 4 14 2
12 2 15 1
13 15 16 1
14 15 19 1
15 16 17 1
16 17 18 1
17 3 18 1
18 5 18 2
19 3 19 1
20 6 19 2
21 2 20 ar
22 7 20 2
@<TRIPOS>SUBSTRUCTURE
1	RES1	1	GROUP	1 ****	RES
