# created with PyMOL 2.5.2
@<TRIPOS>MOLECULE
PARP1_6H0G_E3ligase
20 22 1                 
SMALL
USER_CHARGES
@<TRIPOS>ATOM
1	  N3	1.975	54.429	-85.587	N.pl3	1	RES1	0.000	
2	  N4	1.727	51.795	-82.111	N.2	1	RES1	0.000	
3	  N5	1.979	50.069	-78.866	N.pl3	1	RES1	0.000	
4	  O5	2.795	53.758	-82.839	O.2	1	RES1	0.000	
5	  O6	3.692	49.669	-77.428	O.2	1	RES1	0.000	
6	  O7	0.208	50.472	-80.182	O.2	1	RES1	0.000	
7	  O8	0.433	49.838	-82.243	O.2	1	RES1	0.000	
8	 C15	1.325	53.213	-85.449	C.2	1	RES1	0.000	
9	 C16	0.530	52.667	-86.459	C.2	1	RES1	0.000	
10	 C17	-0.180	51.473	-86.281	C.2	1	RES1	0.000	
11	 C18	-0.106	50.758	-85.090	C.2	1	RES1	0.000	
12	 C19	0.663	51.328	-84.071	C.2	1	RES1	0.000	
13	 C20	1.349	52.498	-84.234	C.2	1	RES1	0.000	
14	 C21	2.062	52.807	-82.979	C.2	1	RES1	0.000	
15	 C22	2.229	51.650	-80.763	C.3	1	RES1	0.000	
16	 C23	3.727	51.254	-80.670	C.3	1	RES1	0.000	
17	 C24	4.161	51.178	-79.208	C.3	1	RES1	0.000	
18	 C25	3.273	50.228	-78.450	C.2	1	RES1	0.000	
19	 C26	1.368	50.656	-79.959	C.2	1	RES1	0.000	
20	 C27	0.917	50.853	-82.697	C.2	1	RES1	0.000	
@<TRIPOS>BOND
1 1 8 1
2 8 9 ar
3 8 13 ar
4 9 10 ar
5 10 11 ar
6 11 12 ar
7 12 13 ar
8 12 20 ar
9 13 14 ar
10 2 14 ar
11 4 14 2
12 2 15 1
13 15 16 1
14 15 19 1
15 16 17 1
16 17 18 1
17 3 18 1
18 5 18 2
19 3 19 1
20 6 19 2
21 2 20 ar
22 7 20 2
@<TRIPOS>SUBSTRUCTURE
1	RES1	1	GROUP	1 ****	RES
