# created with PyMOL 2.5.2
@<TRIPOS>MOLECULE
PARP1_6H0G_E3ligase
20 22 1                 
SMALL
USER_CHARGES
@<TRIPOS>ATOM
1	  N3	1.978	54.435	-85.627	N.pl3	1	RES1	0.000	
2	  N4	1.744	51.803	-82.106	N.2	1	RES1	0.000	
3	  N5	1.994	50.030	-78.893	N.pl3	1	RES1	0.000	
4	  O5	2.843	53.742	-82.888	O.2	1	RES1	0.000	
5	  O6	3.655	49.669	-77.418	O.3	1	RES1	0.000	
6	  O7	0.227	50.397	-80.267	O.2	1	RES1	0.000	
7	  O8	0.437	49.865	-82.225	O.2	1	RES1	0.000	
8	 C16	1.332	53.191	-85.458	C.2	1	RES1	0.000	
9	 C17	0.515	52.643	-86.444	C.2	1	RES1	0.000	
10	 C18	-0.188	51.462	-86.266	C.2	1	RES1	0.000	
11	 C19	-0.127	50.792	-85.031	C.2	1	RES1	0.000	
12	 C20	0.660	51.347	-84.050	C.2	1	RES1	0.000	
13	 C21	1.341	52.503	-84.243	C.2	1	RES1	0.000	
14	 C22	2.071	52.813	-83.013	C.2	1	RES1	0.000	
15	 C23	2.237	51.672	-80.726	C.3	1	RES1	0.000	
16	 C24	3.722	51.291	-80.631	C.3	1	RES1	0.000	
17	 C25	4.126	51.217	-79.172	C.3	1	RES1	0.000	
18	 C26	3.278	50.204	-78.415	C.3	1	RES1	0.000	
19	 C27	1.401	50.615	-79.998	C.2	1	RES1	0.000	
20	 C28	0.878	50.903	-82.696	C.2	1	RES1	0.000	
@<TRIPOS>BOND
1 1 8 1
2 8 9 ar
3 8 13 ar
4 9 10 ar
5 10 11 ar
6 11 12 ar
7 12 13 ar
8 12 20 ar
9 13 14 ar
10 2 14 ar
11 4 14 2
12 2 15 1
13 15 16 1
14 15 19 1
15 16 17 1
16 17 18 1
17 3 18 1
18 5 18 1
19 3 19 1
20 6 19 2
21 2 20 ar
22 7 20 2
@<TRIPOS>SUBSTRUCTURE
1	RES1	1	GROUP	1 ****	RES
