# created with PyMOL 2.5.2
@<TRIPOS>MOLECULE
PARP1_6H0G_E3ligase
20 22 1                 
SMALL
USER_CHARGES
@<TRIPOS>ATOM
1	  N5	1.941	54.456	-85.591	N.pl3	1	RES1	0.000	
2	  O5	2.800	53.745	-82.841	O.2	1	RES1	0.000	
3	  N6	1.709	51.792	-82.122	N.2	1	RES1	0.000	
4	  O6	3.699	49.688	-77.427	O.2	1	RES1	0.000	
5	  N7	1.972	50.071	-78.840	N.pl3	1	RES1	0.000	
6	  O7	0.181	50.493	-80.159	O.2	1	RES1	0.000	
7	  O8	0.458	49.806	-82.269	O.2	1	RES1	0.000	
8	 C33	1.353	53.207	-85.428	C.2	1	RES1	0.000	
9	 C34	0.518	52.683	-86.468	C.2	1	RES1	0.000	
10	 C35	-0.173	51.482	-86.285	C.2	1	RES1	0.000	
11	 C36	-0.108	50.768	-85.080	C.2	1	RES1	0.000	
12	 C37	0.677	51.328	-84.081	C.2	1	RES1	0.000	
13	 C38	1.365	52.502	-84.230	C.2	1	RES1	0.000	
14	 C39	2.057	52.785	-83.010	C.2	1	RES1	0.000	
15	 C40	2.237	51.640	-80.739	C.3	1	RES1	0.000	
16	 C41	3.699	51.211	-80.694	C.3	1	RES1	0.000	
17	 C42	4.154	51.158	-79.236	C.3	1	RES1	0.000	
18	 C43	3.301	50.247	-78.424	C.2	1	RES1	0.000	
19	 C44	1.368	50.702	-79.916	C.2	1	RES1	0.000	
20	 C45	0.916	50.830	-82.725	C.2	1	RES1	0.000	
@<TRIPOS>BOND
1 1 8 1
2 8 9 ar
3 8 13 ar
4 9 10 ar
5 10 11 ar
6 11 12 ar
7 12 13 ar
8 12 20 ar
9 13 14 ar
10 2 14 2
11 3 14 ar
12 3 15 1
13 15 16 1
14 15 19 1
15 16 17 1
16 17 18 1
17 4 18 2
18 5 18 1
19 5 19 1
20 6 19 2
21 3 20 ar
22 7 20 2
@<TRIPOS>SUBSTRUCTURE
1	RES1	1	GROUP	1 ****	RES
