# created with PyMOL 2.5.2
@<TRIPOS>MOLECULE
BRD4_6H0G_E3ligase
20 22 1                 
SMALL
USER_CHARGES
@<TRIPOS>ATOM
1	  O2	2.827	53.745	-82.841	O.2	1	RES1	0.000	
2	  O3	3.693	49.670	-77.403	O.2	1	RES1	0.000	
3	  O4	0.208	50.432	-80.211	O.2	1	RES1	0.000	
4	  O5	0.420	49.827	-82.244	O.2	1	RES1	0.000	
5	  N6	1.987	54.435	-85.611	N.pl3	1	RES1	0.000	
6	  N7	1.731	51.793	-82.108	N.2	1	RES1	0.000	
7	  N8	1.973	50.049	-78.865	N.pl3	1	RES1	0.000	
8	 C15	1.330	53.188	-85.461	C.2	1	RES1	0.000	
9	 C16	0.510	52.674	-86.453	C.2	1	RES1	0.000	
10	 C17	-0.196	51.476	-86.297	C.2	1	RES1	0.000	
11	 C18	-0.117	50.784	-85.072	C.2	1	RES1	0.000	
12	 C19	0.663	51.351	-84.077	C.2	1	RES1	0.000	
13	 C20	1.365	52.493	-84.229	C.2	1	RES1	0.000	
14	 C21	2.065	52.811	-83.001	C.2	1	RES1	0.000	
15	 C22	2.234	51.655	-80.745	C.3	1	RES1	0.000	
16	 C23	3.715	51.265	-80.664	C.3	1	RES1	0.000	
17	 C24	4.138	51.209	-79.213	C.3	1	RES1	0.000	
18	 C25	3.284	50.243	-78.413	C.2	1	RES1	0.000	
19	 C26	1.391	50.641	-79.958	C.2	1	RES1	0.000	
20	 C27	0.904	50.852	-82.698	C.2	1	RES1	0.000	
@<TRIPOS>BOND
1 1 14 2
2 5 8 1
3 8 9 ar
4 8 13 ar
5 9 10 ar
6 10 11 ar
7 11 12 ar
8 12 13 ar
9 12 20 ar
10 13 14 ar
11 6 14 ar
12 6 15 1
13 15 16 1
14 15 19 1
15 16 17 1
16 17 18 1
17 2 18 2
18 7 18 1
19 3 19 2
20 7 19 1
21 4 20 2
22 6 20 ar
@<TRIPOS>SUBSTRUCTURE
1	RES1	1	GROUP	1 ****	RES
