# created with PyMOL 2.5.2
@<TRIPOS>MOLECULE
PARP1_6H0G_E3ligase
20 22 1                 
SMALL
USER_CHARGES
@<TRIPOS>ATOM
1	  N5	2.137	54.374	-85.601	N.pl3	1	RES1	0.000	
2	  N6	1.728	51.713	-82.132	N.2	1	RES1	0.000	
3	  O6	2.760	53.739	-82.785	O.2	1	RES1	0.000	
4	  N7	2.031	50.044	-78.864	N.pl3	1	RES1	0.000	
5	  O7	3.745	49.765	-77.376	O.2	1	RES1	0.000	
6	  O8	0.258	50.303	-80.226	O.2	1	RES1	0.000	
7	  O9	0.294	49.820	-82.283	O.2	1	RES1	0.000	
8	 C35	1.314	53.221	-85.409	C.2	1	RES1	0.000	
9	 C36	0.569	52.697	-86.473	C.2	1	RES1	0.000	
10	 C37	-0.177	51.509	-86.324	C.2	1	RES1	0.000	
11	 C38	-0.153	50.806	-85.112	C.2	1	RES1	0.000	
12	 C39	0.618	51.332	-84.092	C.2	1	RES1	0.000	
13	 C40	1.333	52.504	-84.234	C.2	1	RES1	0.000	
14	 C41	2.046	52.744	-82.974	C.2	1	RES1	0.000	
15	 C42	2.211	51.636	-80.744	C.3	1	RES1	0.000	
16	 C43	3.724	51.345	-80.645	C.3	1	RES1	0.000	
17	 C44	4.118	51.304	-79.178	C.3	1	RES1	0.000	
18	 C45	3.309	50.303	-78.398	C.2	1	RES1	0.000	
19	 C46	1.431	50.589	-79.977	C.2	1	RES1	0.000	
20	 C47	0.828	50.846	-82.738	C.2	1	RES1	0.000	
@<TRIPOS>BOND
1 1 8 1
2 8 9 ar
3 8 13 ar
4 9 10 ar
5 10 11 ar
6 11 12 ar
7 12 13 ar
8 12 20 ar
9 13 14 ar
10 2 14 ar
11 3 14 2
12 2 15 1
13 15 16 1
14 15 19 1
15 16 17 1
16 17 18 1
17 4 18 1
18 5 18 2
19 4 19 1
20 6 19 2
21 2 20 ar
22 7 20 2
@<TRIPOS>SUBSTRUCTURE
1	RES1	1	GROUP	1 ****	RES
