# created with PyMOL 2.5.2
@<TRIPOS>MOLECULE
PARP1_6H0G_E3ligase
20 22 1                 
SMALL
USER_CHARGES
@<TRIPOS>ATOM
1	  N2	1.971	54.441	-85.621	N.pl3	1	RES1	0.000	
2	  N3	1.723	51.801	-82.117	N.2	1	RES1	0.000	
3	  N4	1.989	50.064	-78.883	N.pl3	1	RES1	0.000	
4	  O5	2.797	53.775	-82.835	O.2	1	RES1	0.000	
5	  O6	3.697	49.642	-77.433	O.3	1	RES1	0.000	
6	  O7	0.194	50.440	-80.215	O.2	1	RES1	0.000	
7	  O8	0.436	49.839	-82.237	O.2	1	RES1	0.000	
8	 C12	1.339	53.186	-85.432	C.2	1	RES1	0.000	
9	 C13	0.531	52.659	-86.462	C.2	1	RES1	0.000	
10	 C14	-0.169	51.457	-86.269	C.2	1	RES1	0.000	
11	 C15	-0.120	50.765	-85.059	C.2	1	RES1	0.000	
12	 C16	0.643	51.329	-84.074	C.2	1	RES1	0.000	
13	 C17	1.346	52.522	-84.248	C.2	1	RES1	0.000	
14	 C18	2.061	52.811	-83.007	C.2	1	RES1	0.000	
15	 C19	2.228	51.660	-80.729	C.3	1	RES1	0.000	
16	 C20	3.729	51.263	-80.645	C.3	1	RES1	0.000	
17	 C21	4.168	51.193	-79.197	C.3	1	RES1	0.000	
18	 C22	3.283	50.216	-78.419	C.3	1	RES1	0.000	
19	 C23	1.370	50.648	-79.970	C.2	1	RES1	0.000	
20	 C24	0.909	50.882	-82.715	C.2	1	RES1	0.000	
@<TRIPOS>BOND
1 1 8 1
2 8 9 ar
3 8 13 ar
4 9 10 ar
5 10 11 ar
6 11 12 ar
7 12 13 ar
8 12 20 ar
9 13 14 ar
10 2 14 ar
11 4 14 2
12 2 15 1
13 15 16 1
14 15 19 1
15 16 17 1
16 17 18 1
17 3 18 1
18 5 18 1
19 3 19 1
20 6 19 2
21 2 20 ar
22 7 20 2
@<TRIPOS>SUBSTRUCTURE
1	RES1	1	GROUP	1 ****	RES
