# created with PyMOL 2.5.2
@<TRIPOS>MOLECULE
PARP1_6H0G_E3ligase
20 22 1                 
SMALL
USER_CHARGES
@<TRIPOS>ATOM
1	  N2	1.969	54.433	-85.620	N.pl3	1	RES1	0.000	
2	  N3	1.750	51.816	-82.096	N.2	1	RES1	0.000	
3	  N4	1.987	50.039	-78.890	N.pl3	1	RES1	0.000	
4	  O6	2.826	53.770	-82.853	O.2	1	RES1	0.000	
5	  O7	3.698	49.641	-77.440	O.3	1	RES1	0.000	
6	  O8	0.206	50.415	-80.267	O.2	1	RES1	0.000	
7	  O9	0.440	49.857	-82.226	O.2	1	RES1	0.000	
8	 C14	1.318	53.204	-85.462	C.2	1	RES1	0.000	
9	 C15	0.528	52.660	-86.474	C.2	1	RES1	0.000	
10	 C16	-0.166	51.454	-86.269	C.2	1	RES1	0.000	
11	 C17	-0.124	50.771	-85.058	C.2	1	RES1	0.000	
12	 C18	0.646	51.332	-84.053	C.2	1	RES1	0.000	
13	 C19	1.338	52.508	-84.234	C.2	1	RES1	0.000	
14	 C20	2.060	52.796	-82.986	C.2	1	RES1	0.000	
15	 C21	2.239	51.673	-80.720	C.3	1	RES1	0.000	
16	 C22	3.715	51.290	-80.646	C.3	1	RES1	0.000	
17	 C23	4.145	51.184	-79.181	C.3	1	RES1	0.000	
18	 C24	3.265	50.208	-78.432	C.3	1	RES1	0.000	
19	 C25	1.380	50.656	-79.974	C.2	1	RES1	0.000	
20	 C26	0.904	50.888	-82.685	C.2	1	RES1	0.000	
@<TRIPOS>BOND
1 1 8 1
2 8 9 ar
3 8 13 ar
4 9 10 ar
5 10 11 ar
6 11 12 ar
7 12 13 ar
8 12 20 ar
9 13 14 ar
10 2 14 ar
11 4 14 2
12 2 15 1
13 15 16 1
14 15 19 1
15 16 17 1
16 17 18 1
17 3 18 1
18 5 18 1
19 3 19 1
20 6 19 2
21 2 20 ar
22 7 20 2
@<TRIPOS>SUBSTRUCTURE
1	RES1	1	GROUP	1 ****	RES
