# created with PyMOL 2.5.2
@<TRIPOS>MOLECULE
PARP1_6H0G_E3ligase
20 22 1                 
SMALL
USER_CHARGES
@<TRIPOS>ATOM
1	  N2	1.971	54.438	-85.599	N.pl3	1	RES1	0.000	
2	  N3	1.732	51.783	-82.125	N.2	1	RES1	0.000	
3	  N4	1.984	50.066	-78.848	N.pl3	1	RES1	0.000	
4	  O7	2.827	53.731	-82.847	O.2	1	RES1	0.000	
5	  O8	3.671	49.672	-77.410	O.3	1	RES1	0.000	
6	  O9	0.202	50.484	-80.229	O.2	1	RES1	0.000	
7	 O10	0.451	49.826	-82.248	O.2	1	RES1	0.000	
8	 C16	1.335	53.202	-85.446	C.2	1	RES1	0.000	
9	 C17	0.514	52.672	-86.450	C.2	1	RES1	0.000	
10	 C18	-0.217	51.485	-86.280	C.2	1	RES1	0.000	
11	 C19	-0.120	50.788	-85.064	C.2	1	RES1	0.000	
12	 C20	0.681	51.330	-84.064	C.2	1	RES1	0.000	
13	 C21	1.338	52.502	-84.247	C.2	1	RES1	0.000	
14	 C22	2.071	52.792	-83.007	C.2	1	RES1	0.000	
15	 C23	2.247	51.648	-80.742	C.3	1	RES1	0.000	
16	 C24	3.708	51.261	-80.654	C.3	1	RES1	0.000	
17	 C25	4.142	51.192	-79.220	C.3	1	RES1	0.000	
18	 C26	3.284	50.228	-78.411	C.3	1	RES1	0.000	
19	 C27	1.383	50.651	-79.964	C.2	1	RES1	0.000	
20	 C28	0.921	50.841	-82.711	C.2	1	RES1	0.000	
@<TRIPOS>BOND
1 7 20 2
2 1 8 1
3 8 9 ar
4 8 13 ar
5 9 10 ar
6 10 11 ar
7 11 12 ar
8 12 13 ar
9 12 20 ar
10 13 14 ar
11 2 14 ar
12 4 14 2
13 2 15 1
14 15 16 1
15 15 19 1
16 16 17 1
17 17 18 1
18 3 18 1
19 5 18 1
20 3 19 1
21 6 19 2
22 2 20 ar
@<TRIPOS>SUBSTRUCTURE
1	RES1	1	GROUP	1 ****	RES
