# created with PyMOL 2.5.2
@<TRIPOS>MOLECULE
PARP1_6H0G_E3ligase
20 22 1                 
SMALL
USER_CHARGES
@<TRIPOS>ATOM
1	  N2	1.997	54.457	-85.577	N.pl3	1	RES1	0.000	
2	  N3	1.729	51.725	-82.133	N.2	1	RES1	0.000	
3	  N4	1.965	50.106	-78.827	N.pl3	1	RES1	0.000	
4	  O8	2.829	53.698	-82.847	O.2	1	RES1	0.000	
5	  O9	3.669	49.744	-77.383	O.2	1	RES1	0.000	
6	 O10	0.208	50.473	-80.179	O.2	1	RES1	0.000	
7	 O11	0.428	49.797	-82.304	O.2	1	RES1	0.000	
8	 C18	1.329	53.230	-85.424	C.2	1	RES1	0.000	
9	 C19	0.509	52.713	-86.471	C.2	1	RES1	0.000	
10	 C20	-0.209	51.511	-86.294	C.2	1	RES1	0.000	
11	 C21	-0.159	50.783	-85.078	C.2	1	RES1	0.000	
12	 C22	0.670	51.326	-84.099	C.2	1	RES1	0.000	
13	 C23	1.359	52.474	-84.228	C.2	1	RES1	0.000	
14	 C24	2.071	52.768	-83.004	C.2	1	RES1	0.000	
15	 C25	2.269	51.593	-80.756	C.3	1	RES1	0.000	
16	 C26	3.727	51.221	-80.680	C.3	1	RES1	0.000	
17	 C27	4.164	51.177	-79.225	C.3	1	RES1	0.000	
18	 C28	3.286	50.278	-78.390	C.2	1	RES1	0.000	
19	 C29	1.385	50.690	-79.934	C.2	1	RES1	0.000	
20	 C30	0.901	50.830	-82.733	C.2	1	RES1	0.000	
@<TRIPOS>BOND
1 2 20 ar
2 6 19 2
3 7 20 2
4 1 8 1
5 8 9 ar
6 8 13 ar
7 9 10 ar
8 10 11 ar
9 11 12 ar
10 12 13 ar
11 12 20 ar
12 13 14 ar
13 2 14 ar
14 4 14 2
15 2 15 1
16 15 16 1
17 15 19 1
18 16 17 1
19 17 18 1
20 3 18 1
21 5 18 2
22 3 19 1
@<TRIPOS>SUBSTRUCTURE
1	RES1	1	GROUP	1 ****	RES
