# created with PyMOL 2.5.2
@<TRIPOS>MOLECULE
PARP1_6H0G_E3ligase
20 22 1                 
SMALL
USER_CHARGES
@<TRIPOS>ATOM
1	  N5	1.960	54.422	-85.611	N.pl3	1	RES1	0.000	
2	  N6	1.737	51.799	-82.116	N.2	1	RES1	0.000	
3	  O6	2.816	53.748	-82.853	O.2	1	RES1	0.000	
4	  N7	1.977	50.061	-78.862	N.pl3	1	RES1	0.000	
5	  O7	3.664	49.658	-77.420	O.3	1	RES1	0.000	
6	  O8	0.206	50.457	-80.211	O.2	1	RES1	0.000	
7	  O9	0.454	49.823	-82.232	O.2	1	RES1	0.000	
8	 C24	1.330	53.200	-85.448	C.2	1	RES1	0.000	
9	 C25	0.514	52.676	-86.465	C.2	1	RES1	0.000	
10	 C26	-0.191	51.477	-86.261	C.2	1	RES1	0.000	
11	 C27	-0.110	50.763	-85.065	C.2	1	RES1	0.000	
12	 C28	0.661	51.344	-84.050	C.2	1	RES1	0.000	
13	 C29	1.338	52.515	-84.256	C.2	1	RES1	0.000	
14	 C30	2.080	52.799	-83.008	C.2	1	RES1	0.000	
15	 C31	2.247	51.662	-80.750	C.3	1	RES1	0.000	
16	 C32	3.715	51.254	-80.663	C.3	1	RES1	0.000	
17	 C33	4.141	51.169	-79.210	C.3	1	RES1	0.000	
18	 C34	3.269	50.224	-78.428	C.3	1	RES1	0.000	
19	 C35	1.392	50.667	-79.952	C.2	1	RES1	0.000	
20	 C36	0.925	50.876	-82.707	C.2	1	RES1	0.000	
@<TRIPOS>BOND
1 1 8 1
2 8 9 ar
3 8 13 ar
4 9 10 ar
5 10 11 ar
6 11 12 ar
7 12 13 ar
8 12 20 ar
9 13 14 ar
10 2 14 ar
11 3 14 2
12 2 15 1
13 15 16 1
14 15 19 1
15 16 17 1
16 17 18 1
17 4 18 1
18 5 18 1
19 4 19 1
20 6 19 2
21 2 20 ar
22 7 20 2
@<TRIPOS>SUBSTRUCTURE
1	RES1	1	GROUP	1 ****	RES
