# created with PyMOL 2.5.2
@<TRIPOS>MOLECULE
PARP1_6H0G_E3ligase
20 22 1                 
SMALL
USER_CHARGES
@<TRIPOS>ATOM
1	  N5	1.970	54.463	-85.591	N.pl3	1	RES1	0.000	
2	  N6	1.708	51.786	-82.091	N.2	1	RES1	0.000	
3	  N7	1.979	50.085	-78.846	N.pl3	1	RES1	0.000	
4	  O7	2.781	53.762	-82.842	O.2	1	RES1	0.000	
5	  O8	3.712	49.688	-77.414	O.2	1	RES1	0.000	
6	  O9	0.184	50.456	-80.158	O.2	1	RES1	0.000	
7	 O10	0.453	49.806	-82.262	O.2	1	RES1	0.000	
8	 C26	1.319	53.218	-85.451	C.2	1	RES1	0.000	
9	 C27	0.541	52.655	-86.466	C.2	1	RES1	0.000	
10	 C28	-0.160	51.478	-86.300	C.2	1	RES1	0.000	
11	 C29	-0.094	50.777	-85.088	C.2	1	RES1	0.000	
12	 C30	0.674	51.314	-84.083	C.2	1	RES1	0.000	
13	 C31	1.330	52.512	-84.247	C.2	1	RES1	0.000	
14	 C32	2.065	52.806	-82.985	C.2	1	RES1	0.000	
15	 C33	2.216	51.643	-80.751	C.3	1	RES1	0.000	
16	 C34	3.695	51.225	-80.674	C.3	1	RES1	0.000	
17	 C35	4.171	51.145	-79.248	C.3	1	RES1	0.000	
18	 C36	3.302	50.235	-78.431	C.2	1	RES1	0.000	
19	 C37	1.385	50.685	-79.920	C.2	1	RES1	0.000	
20	 C38	0.893	50.854	-82.719	C.2	1	RES1	0.000	
@<TRIPOS>BOND
1 7 20 2
2 1 8 1
3 8 9 ar
4 8 13 ar
5 9 10 ar
6 10 11 ar
7 11 12 ar
8 12 13 ar
9 12 20 ar
10 13 14 ar
11 2 14 ar
12 4 14 2
13 2 15 1
14 15 16 1
15 15 19 1
16 16 17 1
17 17 18 1
18 3 18 1
19 5 18 2
20 3 19 1
21 6 19 2
22 2 20 ar
@<TRIPOS>SUBSTRUCTURE
1	RES1	1	GROUP	1 ****	RES
