# created with PyMOL 2.5.2
@<TRIPOS>MOLECULE
PARP1_6H0G_E3ligase
20 22 1                 
SMALL
USER_CHARGES
@<TRIPOS>ATOM
1	  N5	1.966	54.439	-85.608	N.pl3	1	RES1	0.000	
2	  N6	1.690	51.791	-82.101	N.2	1	RES1	0.000	
3	  N7	1.998	50.071	-78.859	N.pl3	1	RES1	0.000	
4	  O8	2.779	53.777	-82.813	O.2	1	RES1	0.000	
5	  O9	3.719	49.679	-77.426	O.2	1	RES1	0.000	
6	 O10	0.198	50.457	-80.176	O.2	1	RES1	0.000	
7	 O11	0.413	49.821	-82.258	O.2	1	RES1	0.000	
8	 C28	1.346	53.211	-85.426	C.2	1	RES1	0.000	
9	 C29	0.548	52.683	-86.469	C.2	1	RES1	0.000	
10	 C30	-0.139	51.474	-86.302	C.2	1	RES1	0.000	
11	 C31	-0.099	50.760	-85.101	C.2	1	RES1	0.000	
12	 C32	0.677	51.316	-84.064	C.2	1	RES1	0.000	
13	 C33	1.335	52.504	-84.241	C.2	1	RES1	0.000	
14	 C34	2.027	52.805	-82.973	C.2	1	RES1	0.000	
15	 C35	2.203	51.642	-80.713	C.3	1	RES1	0.000	
16	 C36	3.705	51.246	-80.677	C.3	1	RES1	0.000	
17	 C37	4.165	51.184	-79.261	C.3	1	RES1	0.000	
18	 C38	3.304	50.237	-78.435	C.2	1	RES1	0.000	
19	 C39	1.382	50.659	-79.945	C.2	1	RES1	0.000	
20	 C40	0.909	50.835	-82.717	C.2	1	RES1	0.000	
@<TRIPOS>BOND
1 6 19 2
2 7 20 2
3 1 8 1
4 8 9 ar
5 8 13 ar
6 9 10 ar
7 10 11 ar
8 11 12 ar
9 12 13 ar
10 12 20 ar
11 13 14 ar
12 2 14 ar
13 4 14 2
14 2 15 1
15 15 16 1
16 15 19 1
17 16 17 1
18 17 18 1
19 3 18 1
20 5 18 2
21 3 19 1
22 2 20 ar
@<TRIPOS>SUBSTRUCTURE
1	RES1	1	GROUP	1 ****	RES
