# created with PyMOL 2.5.2
@<TRIPOS>MOLECULE
PARP1_6H0G_E3ligase
20 22 1                 
SMALL
USER_CHARGES
@<TRIPOS>ATOM
1	  N5	1.978	54.431	-85.595	N.pl3	1	RES1	0.000	
2	  N6	1.721	51.794	-82.124	N.2	1	RES1	0.000	
3	  N7	1.986	50.071	-78.875	N.pl3	1	RES1	0.000	
4	  O9	2.827	53.742	-82.846	O.2	1	RES1	0.000	
5	 O10	3.693	49.692	-77.411	O.2	1	RES1	0.000	
6	 O11	0.188	50.424	-80.186	O.2	1	RES1	0.000	
7	 O12	0.425	49.833	-82.256	O.2	1	RES1	0.000	
8	 C30	1.337	53.191	-85.453	C.2	1	RES1	0.000	
9	 C31	0.534	52.669	-86.451	C.2	1	RES1	0.000	
10	 C32	-0.171	51.478	-86.278	C.2	1	RES1	0.000	
11	 C33	-0.111	50.782	-85.065	C.2	1	RES1	0.000	
12	 C34	0.660	51.347	-84.058	C.2	1	RES1	0.000	
13	 C35	1.337	52.509	-84.240	C.2	1	RES1	0.000	
14	 C36	2.066	52.794	-82.993	C.2	1	RES1	0.000	
15	 C37	2.238	51.649	-80.730	C.3	1	RES1	0.000	
16	 C38	3.703	51.248	-80.674	C.3	1	RES1	0.000	
17	 C39	4.152	51.208	-79.212	C.3	1	RES1	0.000	
18	 C40	3.295	50.243	-78.428	C.2	1	RES1	0.000	
19	 C41	1.381	50.642	-79.966	C.2	1	RES1	0.000	
20	 C42	0.886	50.847	-82.726	C.2	1	RES1	0.000	
@<TRIPOS>BOND
1 5 18 2
2 6 19 2
3 7 20 2
4 1 8 1
5 8 9 ar
6 8 13 ar
7 9 10 ar
8 10 11 ar
9 11 12 ar
10 12 13 ar
11 12 20 ar
12 13 14 ar
13 2 14 ar
14 4 14 2
15 2 15 1
16 15 16 1
17 15 19 1
18 16 17 1
19 17 18 1
20 3 18 1
21 3 19 1
22 2 20 ar
@<TRIPOS>SUBSTRUCTURE
1	RES1	1	GROUP	1 ****	RES
