# created with PyMOL 2.5.2
@<TRIPOS>MOLECULE
PARP1_6H0G_E3ligase
20 22 1                 
SMALL
USER_CHARGES
@<TRIPOS>ATOM
1	  N4	1.972	54.444	-85.607	N.pl3	1	RES1	0.000	
2	  N5	1.726	51.796	-82.099	N.2	1	RES1	0.000	
3	  N6	1.985	50.060	-78.852	N.pl3	1	RES1	0.000	
4	  O6	2.816	53.752	-82.843	O.2	1	RES1	0.000	
5	  O7	3.697	49.673	-77.413	O.2	1	RES1	0.000	
6	  O8	0.193	50.431	-80.222	O.2	1	RES1	0.000	
7	  O9	0.446	49.815	-82.222	O.2	1	RES1	0.000	
8	 C26	1.341	53.198	-85.449	C.2	1	RES1	0.000	
9	 C27	0.530	52.663	-86.457	C.2	1	RES1	0.000	
10	 C28	-0.181	51.479	-86.298	C.2	1	RES1	0.000	
11	 C29	-0.132	50.782	-85.067	C.2	1	RES1	0.000	
12	 C30	0.671	51.320	-84.080	C.2	1	RES1	0.000	
13	 C31	1.348	52.500	-84.234	C.2	1	RES1	0.000	
14	 C32	2.058	52.833	-83.010	C.2	1	RES1	0.000	
15	 C33	2.222	51.656	-80.748	C.3	1	RES1	0.000	
16	 C34	3.725	51.270	-80.665	C.3	1	RES1	0.000	
17	 C35	4.159	51.173	-79.217	C.3	1	RES1	0.000	
18	 C36	3.272	50.219	-78.434	C.2	1	RES1	0.000	
19	 C37	1.378	50.657	-79.963	C.2	1	RES1	0.000	
20	 C38	0.900	50.872	-82.686	C.2	1	RES1	0.000	
@<TRIPOS>BOND
1 1 8 1
2 8 9 ar
3 8 13 ar
4 9 10 ar
5 10 11 ar
6 11 12 ar
7 12 13 ar
8 12 20 ar
9 13 14 ar
10 2 14 ar
11 4 14 2
12 2 15 1
13 15 16 1
14 15 19 1
15 16 17 1
16 17 18 1
17 3 18 1
18 5 18 2
19 3 19 1
20 6 19 2
21 2 20 ar
22 7 20 2
@<TRIPOS>SUBSTRUCTURE
1	RES1	1	GROUP	1 ****	RES
