# created with PyMOL 2.5.2
@<TRIPOS>MOLECULE
BRD2_6H0G_E3ligase
20 22 1                 
SMALL
USER_CHARGES
@<TRIPOS>ATOM
1	  O2	2.838	53.756	-82.873	O.2	1	RES1	0.000	
2	  O3	3.655	49.657	-77.418	O.3	1	RES1	0.000	
3	  O4	0.217	50.410	-80.241	O.2	1	RES1	0.000	
4	  O5	0.439	49.853	-82.226	O.2	1	RES1	0.000	
5	  N6	1.978	54.417	-85.628	N.pl3	1	RES1	0.000	
6	  N7	1.755	51.801	-82.114	N.2	1	RES1	0.000	
7	  N8	1.975	50.045	-78.878	N.pl3	1	RES1	0.000	
8	 C14	1.325	53.194	-85.440	C.2	1	RES1	0.000	
9	 C15	0.500	52.668	-86.464	C.2	1	RES1	0.000	
10	 C16	-0.186	51.461	-86.259	C.2	1	RES1	0.000	
11	 C17	-0.132	50.791	-85.053	C.2	1	RES1	0.000	
12	 C18	0.648	51.342	-84.045	C.2	1	RES1	0.000	
13	 C19	1.356	52.520	-84.252	C.2	1	RES1	0.000	
14	 C20	2.078	52.801	-83.003	C.2	1	RES1	0.000	
15	 C21	2.255	51.665	-80.743	C.3	1	RES1	0.000	
16	 C22	3.727	51.283	-80.644	C.3	1	RES1	0.000	
17	 C23	4.143	51.180	-79.193	C.3	1	RES1	0.000	
18	 C24	3.270	50.228	-78.419	C.3	1	RES1	0.000	
19	 C25	1.371	50.646	-79.990	C.2	1	RES1	0.000	
20	 C26	0.912	50.872	-82.682	C.2	1	RES1	0.000	
@<TRIPOS>BOND
1 1 14 2
2 5 8 1
3 8 9 ar
4 8 13 ar
5 9 10 ar
6 10 11 ar
7 11 12 ar
8 12 13 ar
9 12 20 ar
10 13 14 ar
11 6 14 ar
12 6 15 1
13 15 16 1
14 15 19 1
15 16 17 1
16 17 18 1
17 2 18 1
18 7 18 1
19 3 19 2
20 7 19 1
21 4 20 2
22 6 20 ar
@<TRIPOS>SUBSTRUCTURE
1	RES1	1	GROUP	1 ****	RES
