# created with PyMOL 2.5.2
@<TRIPOS>MOLECULE
BRD9_6H0G_E3ligase
20 22 1                 
SMALL
USER_CHARGES
@<TRIPOS>ATOM
1	  N6	1.974	54.444	-85.587	N.pl3	1	RES1	0.000	
2	  N7	1.749	51.738	-82.144	N.2	1	RES1	0.000	
3	  O7	2.843	53.724	-82.857	O.2	1	RES1	0.000	
4	  N8	1.982	50.105	-78.851	N.pl3	1	RES1	0.000	
5	  O8	3.649	49.712	-77.368	O.3	1	RES1	0.000	
6	  O9	0.217	50.445	-80.225	O.2	1	RES1	0.000	
7	 O10	0.418	49.802	-82.251	O.2	1	RES1	0.000	
8	 C29	1.345	53.212	-85.461	C.2	1	RES1	0.000	
9	 C30	0.503	52.706	-86.452	C.2	1	RES1	0.000	
10	 C31	-0.222	51.506	-86.263	C.2	1	RES1	0.000	
11	 C32	-0.153	50.804	-85.088	C.2	1	RES1	0.000	
12	 C33	0.643	51.331	-84.068	C.2	1	RES1	0.000	
13	 C34	1.355	52.500	-84.259	C.2	1	RES1	0.000	
14	 C35	2.109	52.772	-83.019	C.2	1	RES1	0.000	
15	 C36	2.274	51.611	-80.764	C.3	1	RES1	0.000	
16	 C37	3.752	51.221	-80.654	C.3	1	RES1	0.000	
17	 C38	4.151	51.206	-79.192	C.3	1	RES1	0.000	
18	 C39	3.267	50.259	-78.398	C.3	1	RES1	0.000	
19	 C40	1.374	50.654	-79.957	C.2	1	RES1	0.000	
20	 C41	0.894	50.840	-82.707	C.2	1	RES1	0.000	
@<TRIPOS>BOND
1 7 20 2
2 1 8 1
3 8 9 ar
4 8 13 ar
5 9 10 ar
6 10 11 ar
7 11 12 ar
8 12 13 ar
9 12 20 ar
10 13 14 ar
11 2 14 ar
12 3 14 2
13 2 15 1
14 15 16 1
15 15 19 1
16 16 17 1
17 17 18 1
18 4 18 1
19 5 18 1
20 4 19 1
21 6 19 2
22 2 20 ar
@<TRIPOS>SUBSTRUCTURE
1	RES1	1	GROUP	1 ****	RES
