# created with PyMOL 2.5.2
@<TRIPOS>MOLECULE
PARP1_6H0G_E3ligase
20 22 1                 
SMALL
USER_CHARGES
@<TRIPOS>ATOM
1	  N4	1.992	54.448	-85.645	N.pl3	1	RES1	0.000	
2	  N5	1.755	51.816	-82.097	N.2	1	RES1	0.000	
3	  N6	1.977	50.039	-78.904	N.pl3	1	RES1	0.000	
4	  O7	2.839	53.770	-82.871	O.2	1	RES1	0.000	
5	  O8	3.661	49.630	-77.425	O.3	1	RES1	0.000	
6	  O9	0.221	50.388	-80.276	O.2	1	RES1	0.000	
7	 O10	0.427	49.860	-82.197	O.2	1	RES1	0.000	
8	 C28	1.315	53.182	-85.452	C.2	1	RES1	0.000	
9	 C29	0.503	52.645	-86.470	C.2	1	RES1	0.000	
10	 C30	-0.197	51.475	-86.271	C.2	1	RES1	0.000	
11	 C31	-0.133	50.768	-85.048	C.2	1	RES1	0.000	
12	 C32	0.655	51.340	-84.047	C.2	1	RES1	0.000	
13	 C33	1.346	52.509	-84.234	C.2	1	RES1	0.000	
14	 C34	2.082	52.815	-83.002	C.2	1	RES1	0.000	
15	 C35	2.237	51.689	-80.747	C.3	1	RES1	0.000	
16	 C36	3.724	51.303	-80.638	C.3	1	RES1	0.000	
17	 C37	4.137	51.191	-79.170	C.3	1	RES1	0.000	
18	 C38	3.261	50.208	-78.426	C.3	1	RES1	0.000	
19	 C39	1.393	50.628	-79.961	C.2	1	RES1	0.000	
20	 C40	0.927	50.888	-82.687	C.2	1	RES1	0.000	
@<TRIPOS>BOND
1 7 20 2
2 1 8 1
3 8 9 ar
4 8 13 ar
5 9 10 ar
6 10 11 ar
7 11 12 ar
8 12 13 ar
9 12 20 ar
10 13 14 ar
11 2 14 ar
12 4 14 2
13 2 15 1
14 15 16 1
15 15 19 1
16 16 17 1
17 17 18 1
18 3 18 1
19 5 18 1
20 3 19 1
21 6 19 2
22 2 20 ar
@<TRIPOS>SUBSTRUCTURE
1	RES1	1	GROUP	1 ****	RES
