# created with PyMOL 2.5.2
@<TRIPOS>MOLECULE
PARP1_6H0G_E3ligase
20 22 1                 
SMALL
USER_CHARGES
@<TRIPOS>ATOM
1	  N4	1.980	54.432	-85.622	N.pl3	1	RES1	0.000	
2	  N5	1.754	51.795	-82.091	N.2	1	RES1	0.000	
3	  N6	1.984	50.048	-78.889	N.pl3	1	RES1	0.000	
4	  O8	2.830	53.760	-82.848	O.2	1	RES1	0.000	
5	  O9	3.664	49.652	-77.422	O.3	1	RES1	0.000	
6	 O10	0.215	50.426	-80.238	O.2	1	RES1	0.000	
7	 O11	0.407	49.846	-82.239	O.2	1	RES1	0.000	
8	 C30	1.322	53.183	-85.457	C.2	1	RES1	0.000	
9	 C31	0.505	52.652	-86.446	C.2	1	RES1	0.000	
10	 C32	-0.200	51.483	-86.268	C.2	1	RES1	0.000	
11	 C33	-0.115	50.784	-85.087	C.2	1	RES1	0.000	
12	 C34	0.662	51.335	-84.061	C.2	1	RES1	0.000	
13	 C35	1.357	52.514	-84.233	C.2	1	RES1	0.000	
14	 C36	2.073	52.799	-83.000	C.2	1	RES1	0.000	
15	 C37	2.249	51.659	-80.732	C.3	1	RES1	0.000	
16	 C38	3.721	51.274	-80.644	C.3	1	RES1	0.000	
17	 C39	4.135	51.209	-79.202	C.3	1	RES1	0.000	
18	 C40	3.271	50.231	-78.418	C.3	1	RES1	0.000	
19	 C41	1.392	50.645	-79.976	C.2	1	RES1	0.000	
20	 C42	0.916	50.868	-82.691	C.2	1	RES1	0.000	
@<TRIPOS>BOND
1 6 19 2
2 7 20 2
3 1 8 1
4 8 9 ar
5 8 13 ar
6 9 10 ar
7 10 11 ar
8 11 12 ar
9 12 13 ar
10 12 20 ar
11 13 14 ar
12 2 14 ar
13 4 14 2
14 2 15 1
15 15 16 1
16 15 19 1
17 16 17 1
18 17 18 1
19 3 18 1
20 5 18 1
21 3 19 1
22 2 20 ar
@<TRIPOS>SUBSTRUCTURE
1	RES1	1	GROUP	1 ****	RES
