# created with PyMOL 2.5.2
@<TRIPOS>MOLECULE
PARP1_6H0G_E3ligase
20 22 1                 
SMALL
USER_CHARGES
@<TRIPOS>ATOM
1	  N4	1.974	54.445	-85.616	N.pl3	1	RES1	0.000	
2	  N5	1.718	51.795	-82.119	N.2	1	RES1	0.000	
3	  N6	1.987	50.044	-78.878	N.pl3	1	RES1	0.000	
4	  O9	2.815	53.757	-82.836	O.2	1	RES1	0.000	
5	 O10	3.707	49.675	-77.416	O.2	1	RES1	0.000	
6	 O11	0.207	50.410	-80.208	O.2	1	RES1	0.000	
7	 O12	0.410	49.820	-82.258	O.2	1	RES1	0.000	
8	 C32	1.351	53.188	-85.448	C.2	1	RES1	0.000	
9	 C33	0.546	52.668	-86.456	C.2	1	RES1	0.000	
10	 C34	-0.178	51.471	-86.288	C.2	1	RES1	0.000	
11	 C35	-0.115	50.766	-85.090	C.2	1	RES1	0.000	
12	 C36	0.644	51.339	-84.068	C.2	1	RES1	0.000	
13	 C37	1.361	52.498	-84.226	C.2	1	RES1	0.000	
14	 C38	2.054	52.810	-82.984	C.2	1	RES1	0.000	
15	 C39	2.225	51.650	-80.736	C.3	1	RES1	0.000	
16	 C40	3.704	51.267	-80.665	C.3	1	RES1	0.000	
17	 C41	4.162	51.227	-79.182	C.3	1	RES1	0.000	
18	 C42	3.296	50.238	-78.435	C.2	1	RES1	0.000	
19	 C43	1.392	50.650	-79.950	C.2	1	RES1	0.000	
20	 C44	0.865	50.875	-82.706	C.2	1	RES1	0.000	
@<TRIPOS>BOND
1 5 18 2
2 6 19 2
3 7 20 2
4 1 8 1
5 8 9 ar
6 8 13 ar
7 9 10 ar
8 10 11 ar
9 11 12 ar
10 12 13 ar
11 12 20 ar
12 13 14 ar
13 2 14 ar
14 4 14 2
15 2 15 1
16 15 16 1
17 15 19 1
18 16 17 1
19 17 18 1
20 3 18 1
21 3 19 1
22 2 20 ar
@<TRIPOS>SUBSTRUCTURE
1	RES1	1	GROUP	1 ****	RES
