# created with PyMOL 2.5.2
@<TRIPOS>MOLECULE
BTK_7BQU_E3ligase
19 21 1                 
SMALL
USER_CHARGES
@<TRIPOS>ATOM
1	  N7	25.427	17.707	13.128	N.2	1	RES1	0.000	
2	  N8	25.067	19.878	16.073	N.pl3	1	RES1	0.000	
3	  O8	27.388	17.230	11.950	O.2	1	RES1	0.000	
4	  O9	26.323	20.301	17.929	O.2	1	RES1	0.000	
5	 O10	23.744	19.614	14.245	O.2	1	RES1	0.000	
6	 O11	23.121	17.702	13.638	O.2	1	RES1	0.000	
7	 C37	25.549	15.510	10.246	C.2	1	RES1	0.000	
8	 C38	24.468	14.822	9.658	C.2	1	RES1	0.000	
9	 C39	23.167	14.960	10.195	C.2	1	RES1	0.000	
10	 C40	22.913	15.782	11.278	C.2	1	RES1	0.000	
11	 C41	24.010	16.430	11.867	C.2	1	RES1	0.000	
12	 C42	25.280	16.309	11.346	C.2	1	RES1	0.000	
13	 C43	26.193	17.125	12.155	C.2	1	RES1	0.000	
14	 C44	25.964	18.634	14.135	C.3	1	RES1	0.000	
15	 C45	26.866	17.946	15.176	C.3	1	RES1	0.000	
16	 C46	27.368	19.002	16.181	C.3	1	RES1	0.000	
17	 C47	26.229	19.756	16.809	C.2	1	RES1	0.000	
18	 C48	24.808	19.392	14.818	C.2	1	RES1	0.000	
19	 C49	24.106	17.352	13.013	C.2	1	RES1	0.000	
@<TRIPOS>BOND
1 5 18 2
2 6 19 2
3 7 8 ar
4 7 12 ar
5 8 9 ar
6 9 10 ar
7 10 11 ar
8 11 12 ar
9 11 19 ar
10 12 13 ar
11 1 13 ar
12 3 13 2
13 1 14 1
14 14 15 1
15 14 18 1
16 15 16 1
17 16 17 1
18 2 17 1
19 4 17 2
20 2 18 1
21 1 19 ar
@<TRIPOS>SUBSTRUCTURE
1	RES1	1	GROUP	1 ****	RES
