# created with PyMOL 2.5.2
@<TRIPOS>MOLECULE
BTK_7BQU_E3ligase
19 21 1                 
SMALL
USER_CHARGES
@<TRIPOS>ATOM
1	  N7	25.419	17.715	13.130	N.2	1	RES1	0.000	
2	  N8	25.076	19.864	16.073	N.pl3	1	RES1	0.000	
3	  O9	27.389	17.223	11.965	O.2	1	RES1	0.000	
4	 O10	26.359	20.270	17.906	O.2	1	RES1	0.000	
5	 O11	23.720	19.593	14.281	O.2	1	RES1	0.000	
6	 O12	23.075	17.701	13.638	O.2	1	RES1	0.000	
7	 C36	25.548	15.502	10.249	C.2	1	RES1	0.000	
8	 C37	24.478	14.825	9.676	C.2	1	RES1	0.000	
9	 C38	23.182	14.968	10.179	C.2	1	RES1	0.000	
10	 C39	22.945	15.776	11.279	C.2	1	RES1	0.000	
11	 C40	24.035	16.443	11.845	C.2	1	RES1	0.000	
12	 C41	25.277	16.283	11.358	C.2	1	RES1	0.000	
13	 C42	26.166	17.136	12.162	C.2	1	RES1	0.000	
14	 C43	25.962	18.662	14.141	C.3	1	RES1	0.000	
15	 C44	26.867	17.960	15.160	C.3	1	RES1	0.000	
16	 C45	27.374	19.032	16.160	C.3	1	RES1	0.000	
17	 C46	26.245	19.774	16.816	C.2	1	RES1	0.000	
18	 C47	24.785	19.375	14.829	C.2	1	RES1	0.000	
19	 C48	24.091	17.353	12.990	C.2	1	RES1	0.000	
@<TRIPOS>BOND
1 4 17 2
2 5 18 2
3 6 19 2
4 7 8 ar
5 7 12 ar
6 8 9 ar
7 9 10 ar
8 10 11 ar
9 11 12 ar
10 11 19 ar
11 12 13 ar
12 1 13 ar
13 3 13 2
14 1 14 1
15 14 15 1
16 14 18 1
17 15 16 1
18 16 17 1
19 2 17 1
20 2 18 1
21 1 19 ar
@<TRIPOS>SUBSTRUCTURE
1	RES1	1	GROUP	1 ****	RES
