# created with PyMOL 2.5.2
@<TRIPOS>MOLECULE
BTK_7BQU_E3ligase
19 21 1                 
SMALL
USER_CHARGES
@<TRIPOS>ATOM
1	  N7	25.408	17.698	13.135	N.2	1	RES1	0.000	
2	  N8	25.058	19.883	16.071	N.pl3	1	RES1	0.000	
3	  O8	27.392	17.224	11.963	O.2	1	RES1	0.000	
4	  O9	26.374	20.295	17.904	O.2	1	RES1	0.000	
5	 O10	23.726	19.600	14.289	O.2	1	RES1	0.000	
6	 O11	23.106	17.706	13.644	O.2	1	RES1	0.000	
7	 C37	25.541	15.479	10.250	C.2	1	RES1	0.000	
8	 C38	24.477	14.827	9.667	C.2	1	RES1	0.000	
9	 C39	23.193	14.979	10.168	C.2	1	RES1	0.000	
10	 C40	22.942	15.785	11.296	C.2	1	RES1	0.000	
11	 C41	24.009	16.446	11.838	C.2	1	RES1	0.000	
12	 C42	25.292	16.291	11.359	C.2	1	RES1	0.000	
13	 C43	26.191	17.116	12.157	C.2	1	RES1	0.000	
14	 C44	25.949	18.643	14.143	C.3	1	RES1	0.000	
15	 C45	26.847	17.969	15.168	C.3	1	RES1	0.000	
16	 C46	27.379	19.009	16.151	C.3	1	RES1	0.000	
17	 C47	26.235	19.762	16.810	C.2	1	RES1	0.000	
18	 C48	24.790	19.385	14.837	C.2	1	RES1	0.000	
19	 C49	24.084	17.355	12.991	C.2	1	RES1	0.000	
@<TRIPOS>BOND
1 5 18 2
2 6 19 2
3 7 8 ar
4 7 12 ar
5 8 9 ar
6 9 10 ar
7 10 11 ar
8 11 12 ar
9 11 19 ar
10 12 13 ar
11 1 13 ar
12 3 13 2
13 1 14 1
14 14 15 1
15 14 18 1
16 15 16 1
17 16 17 1
18 2 17 1
19 4 17 2
20 2 18 1
21 1 19 ar
@<TRIPOS>SUBSTRUCTURE
1	RES1	1	GROUP	1 ****	RES
