# created with PyMOL 2.5.2
@<TRIPOS>MOLECULE
BTK_7BQU_E3ligase
19 21 1                 
SMALL
USER_CHARGES
@<TRIPOS>ATOM
1	  N2	25.415	17.728	13.126	N.2	1	RES1	0.000	
2	  N3	25.080	19.886	16.070	N.pl3	1	RES1	0.000	
3	  O7	27.394	17.229	11.918	O.2	1	RES1	0.000	
4	  O8	26.337	20.255	17.903	O.2	1	RES1	0.000	
5	  O9	23.743	19.648	14.241	O.2	1	RES1	0.000	
6	 O10	23.125	17.678	13.645	O.2	1	RES1	0.000	
7	 C15	25.548	15.510	10.226	C.2	1	RES1	0.000	
8	 C16	24.476	14.837	9.671	C.2	1	RES1	0.000	
9	 C17	23.160	14.959	10.214	C.2	1	RES1	0.000	
10	 C18	22.924	15.757	11.323	C.2	1	RES1	0.000	
11	 C19	24.029	16.456	11.866	C.2	1	RES1	0.000	
12	 C20	25.295	16.312	11.350	C.2	1	RES1	0.000	
13	 C21	26.198	17.123	12.157	C.2	1	RES1	0.000	
14	 C22	25.967	18.632	14.127	C.3	1	RES1	0.000	
15	 C23	26.833	17.948	15.177	C.3	1	RES1	0.000	
16	 C24	27.354	19.003	16.177	C.3	1	RES1	0.000	
17	 C25	26.216	19.749	16.840	C.2	1	RES1	0.000	
18	 C26	24.803	19.402	14.812	C.2	1	RES1	0.000	
19	 C27	24.097	17.341	12.997	C.2	1	RES1	0.000	
@<TRIPOS>BOND
1 1 13 ar
2 1 14 1
3 1 19 ar
4 6 19 2
5 7 8 ar
6 7 12 ar
7 8 9 ar
8 9 10 ar
9 10 11 ar
10 11 12 ar
11 11 19 ar
12 12 13 ar
13 3 13 2
14 14 15 1
15 14 18 1
16 15 16 1
17 16 17 1
18 2 17 1
19 4 17 2
20 2 18 1
21 5 18 2
@<TRIPOS>SUBSTRUCTURE
1	RES1	1	GROUP	1 ****	RES
