# created with PyMOL 2.5.2
@<TRIPOS>MOLECULE
BTK_7BQU_E3ligase
19 21 1                 
SMALL
USER_CHARGES
@<TRIPOS>ATOM
1	  N2	25.422	17.721	13.129	N.2	1	RES1	0.000	
2	  N3	25.066	19.861	16.090	N.pl3	1	RES1	0.000	
3	  O6	27.380	17.240	11.942	O.2	1	RES1	0.000	
4	  O7	26.352	20.280	17.902	O.2	1	RES1	0.000	
5	  O8	23.720	19.583	14.280	O.2	1	RES1	0.000	
6	  O9	23.100	17.727	13.641	O.2	1	RES1	0.000	
7	 C16	25.562	15.485	10.253	C.2	1	RES1	0.000	
8	 C17	24.482	14.834	9.666	C.2	1	RES1	0.000	
9	 C18	23.155	14.960	10.200	C.2	1	RES1	0.000	
10	 C19	22.945	15.780	11.303	C.2	1	RES1	0.000	
11	 C20	24.035	16.437	11.850	C.2	1	RES1	0.000	
12	 C21	25.290	16.309	11.338	C.2	1	RES1	0.000	
13	 C22	26.191	17.125	12.148	C.2	1	RES1	0.000	
14	 C23	25.959	18.647	14.124	C.3	1	RES1	0.000	
15	 C24	26.875	17.969	15.191	C.3	1	RES1	0.000	
16	 C25	27.345	18.996	16.127	C.3	1	RES1	0.000	
17	 C26	26.230	19.766	16.821	C.2	1	RES1	0.000	
18	 C27	24.808	19.385	14.827	C.2	1	RES1	0.000	
19	 C28	24.075	17.348	13.008	C.2	1	RES1	0.000	
@<TRIPOS>BOND
1 1 13 ar
2 1 14 1
3 1 19 ar
4 7 8 ar
5 7 12 ar
6 8 9 ar
7 9 10 ar
8 10 11 ar
9 11 12 ar
10 11 19 ar
11 12 13 ar
12 3 13 2
13 14 15 1
14 14 18 1
15 15 16 1
16 16 17 1
17 2 17 1
18 4 17 2
19 2 18 1
20 5 18 2
21 6 19 2
@<TRIPOS>SUBSTRUCTURE
1	RES1	1	GROUP	1 ****	RES
