# created with PyMOL 2.5.2
@<TRIPOS>MOLECULE
BTK_7BQU_E3ligase
19 21 1                 
SMALL
USER_CHARGES
@<TRIPOS>ATOM
1	  N8	25.417	17.697	13.151	N.2	1	RES1	0.000	
2	  O8	27.390	17.222	11.968	O.2	1	RES1	0.000	
3	  N9	25.079	19.891	16.085	N.pl3	1	RES1	0.000	
4	  O9	26.358	20.304	17.898	O.2	1	RES1	0.000	
5	 O10	23.734	19.637	14.262	O.2	1	RES1	0.000	
6	 O11	23.097	17.692	13.657	O.2	1	RES1	0.000	
7	 C41	25.556	15.493	10.260	C.2	1	RES1	0.000	
8	 C42	24.476	14.838	9.651	C.2	1	RES1	0.000	
9	 C43	23.187	14.978	10.169	C.2	1	RES1	0.000	
10	 C44	22.914	15.776	11.266	C.2	1	RES1	0.000	
11	 C45	24.023	16.430	11.859	C.2	1	RES1	0.000	
12	 C46	25.277	16.291	11.348	C.2	1	RES1	0.000	
13	 C47	26.198	17.111	12.159	C.2	1	RES1	0.000	
14	 C48	25.946	18.624	14.140	C.3	1	RES1	0.000	
15	 C49	26.854	17.979	15.177	C.3	1	RES1	0.000	
16	 C50	27.370	19.002	16.145	C.3	1	RES1	0.000	
17	 C51	26.223	19.757	16.796	C.2	1	RES1	0.000	
18	 C52	24.810	19.385	14.847	C.2	1	RES1	0.000	
19	 C53	24.085	17.345	13.001	C.2	1	RES1	0.000	
@<TRIPOS>BOND
1 5 18 2
2 6 19 2
3 7 8 ar
4 7 12 ar
5 8 9 ar
6 9 10 ar
7 10 11 ar
8 11 12 ar
9 11 19 ar
10 12 13 ar
11 1 13 ar
12 2 13 2
13 1 14 1
14 14 15 1
15 14 18 1
16 15 16 1
17 16 17 1
18 3 17 1
19 4 17 2
20 3 18 1
21 1 19 ar
@<TRIPOS>SUBSTRUCTURE
1	RES1	1	GROUP	1 ****	RES
