# created with PyMOL 2.5.2
@<TRIPOS>MOLECULE
BTK_7BQU_E3ligase
19 21 1                 
SMALL
USER_CHARGES
@<TRIPOS>ATOM
1	  N2	25.411	17.700	13.147	N.2	1	RES1	0.000	
2	  N3	25.055	19.867	16.095	N.pl3	1	RES1	0.000	
3	  O6	27.406	17.202	11.973	O.2	1	RES1	0.000	
4	  O7	26.374	20.302	17.898	O.2	1	RES1	0.000	
5	  O8	23.714	19.586	14.309	O.2	1	RES1	0.000	
6	  O9	23.120	17.735	13.636	O.2	1	RES1	0.000	
7	 C13	25.548	15.495	10.259	C.2	1	RES1	0.000	
8	 C14	24.479	14.835	9.675	C.2	1	RES1	0.000	
9	 C15	23.173	14.955	10.155	C.2	1	RES1	0.000	
10	 C16	22.934	15.782	11.271	C.2	1	RES1	0.000	
11	 C17	24.020	16.442	11.851	C.2	1	RES1	0.000	
12	 C18	25.288	16.293	11.345	C.2	1	RES1	0.000	
13	 C19	26.179	17.118	12.148	C.2	1	RES1	0.000	
14	 C20	25.941	18.636	14.149	C.3	1	RES1	0.000	
15	 C21	26.863	17.977	15.182	C.3	1	RES1	0.000	
16	 C22	27.367	19.034	16.133	C.3	1	RES1	0.000	
17	 C23	26.237	19.769	16.782	C.2	1	RES1	0.000	
18	 C24	24.794	19.356	14.847	C.2	1	RES1	0.000	
19	 C25	24.092	17.367	12.984	C.2	1	RES1	0.000	
@<TRIPOS>BOND
1 1 14 1
2 1 19 ar
3 7 8 ar
4 7 12 ar
5 8 9 ar
6 9 10 ar
7 10 11 ar
8 11 12 ar
9 11 19 ar
10 12 13 ar
11 1 13 ar
12 3 13 2
13 14 15 1
14 14 18 1
15 15 16 1
16 16 17 1
17 2 17 1
18 4 17 2
19 2 18 1
20 5 18 2
21 6 19 2
@<TRIPOS>SUBSTRUCTURE
1	RES1	1	GROUP	1 ****	RES
