# created with PyMOL 2.5.2
@<TRIPOS>MOLECULE
BRD4_6H0G_E3ligase
20 22 1                 
SMALL
USER_CHARGES
@<TRIPOS>ATOM
1	  O2	2.796	53.751	-82.823	O.2	1	RES1	0.000	
2	  O3	3.703	49.690	-77.429	O.2	1	RES1	0.000	
3	  O4	0.213	50.460	-80.200	O.2	1	RES1	0.000	
4	  O5	0.425	49.806	-82.264	O.2	1	RES1	0.000	
5	  N6	1.961	54.452	-85.583	N.pl3	1	RES1	0.000	
6	  N7	1.719	51.781	-82.104	N.2	1	RES1	0.000	
7	  N8	1.985	50.086	-78.854	N.pl3	1	RES1	0.000	
8	 C14	1.328	53.194	-85.458	C.2	1	RES1	0.000	
9	 C15	0.532	52.672	-86.462	C.2	1	RES1	0.000	
10	 C16	-0.163	51.467	-86.293	C.2	1	RES1	0.000	
11	 C17	-0.093	50.787	-85.076	C.2	1	RES1	0.000	
12	 C18	0.663	51.353	-84.068	C.2	1	RES1	0.000	
13	 C19	1.350	52.508	-84.253	C.2	1	RES1	0.000	
14	 C20	2.034	52.781	-82.991	C.2	1	RES1	0.000	
15	 C21	2.234	51.633	-80.734	C.3	1	RES1	0.000	
16	 C22	3.698	51.250	-80.671	C.3	1	RES1	0.000	
17	 C23	4.151	51.152	-79.226	C.3	1	RES1	0.000	
18	 C24	3.288	50.246	-78.436	C.2	1	RES1	0.000	
19	 C25	1.389	50.668	-79.935	C.2	1	RES1	0.000	
20	 C26	0.912	50.857	-82.707	C.2	1	RES1	0.000	
@<TRIPOS>BOND
1 1 14 2
2 5 8 1
3 8 9 ar
4 8 13 ar
5 9 10 ar
6 10 11 ar
7 11 12 ar
8 12 13 ar
9 12 20 ar
10 13 14 ar
11 6 14 ar
12 6 15 1
13 15 16 1
14 15 19 1
15 16 17 1
16 17 18 1
17 2 18 2
18 7 18 1
19 3 19 2
20 7 19 1
21 4 20 2
22 6 20 ar
@<TRIPOS>SUBSTRUCTURE
1	RES1	1	GROUP	1 ****	RES
