# created with PyMOL 2.5.2
@<TRIPOS>MOLECULE
BTK_7BQU_E3ligase
19 21 1                 
SMALL
USER_CHARGES
@<TRIPOS>ATOM
1	  N2	25.430	17.667	13.136	N.2	1	RES1	0.000	
2	  N3	25.057	19.892	16.064	N.pl3	1	RES1	0.000	
3	  O5	27.406	17.206	11.939	O.2	1	RES1	0.000	
4	  O6	26.330	20.313	17.897	O.2	1	RES1	0.000	
5	  O7	23.738	19.602	14.281	O.2	1	RES1	0.000	
6	  O8	23.115	17.707	13.647	O.2	1	RES1	0.000	
7	 C11	25.551	15.484	10.231	C.2	1	RES1	0.000	
8	 C12	24.454	14.829	9.656	C.2	1	RES1	0.000	
9	 C13	23.164	15.001	10.180	C.2	1	RES1	0.000	
10	 C14	22.936	15.819	11.300	C.2	1	RES1	0.000	
11	 C15	24.027	16.440	11.863	C.2	1	RES1	0.000	
12	 C16	25.281	16.303	11.334	C.2	1	RES1	0.000	
13	 C17	26.203	17.108	12.163	C.2	1	RES1	0.000	
14	 C18	25.960	18.603	14.168	C.3	1	RES1	0.000	
15	 C19	26.852	17.958	15.198	C.3	1	RES1	0.000	
16	 C20	27.355	19.028	16.149	C.3	1	RES1	0.000	
17	 C21	26.224	19.755	16.823	C.2	1	RES1	0.000	
18	 C22	24.798	19.387	14.802	C.2	1	RES1	0.000	
19	 C23	24.112	17.353	13.009	C.2	1	RES1	0.000	
@<TRIPOS>BOND
1 1 19 ar
2 7 8 ar
3 7 12 ar
4 8 9 ar
5 9 10 ar
6 10 11 ar
7 11 12 ar
8 11 19 ar
9 12 13 ar
10 1 13 ar
11 3 13 2
12 1 14 1
13 14 15 1
14 14 18 1
15 15 16 1
16 16 17 1
17 2 17 1
18 4 17 2
19 2 18 1
20 5 18 2
21 6 19 2
@<TRIPOS>SUBSTRUCTURE
1	RES1	1	GROUP	1 ****	RES
