# created with PyMOL 2.5.2
@<TRIPOS>MOLECULE
BTK_7BQU_E3ligase
19 21 1                 
SMALL
USER_CHARGES
@<TRIPOS>ATOM
1	  N4	25.385	17.724	13.141	N.2	1	RES1	0.000	
2	  N5	25.076	19.877	16.088	N.pl3	1	RES1	0.000	
3	  O7	27.378	17.246	11.964	O.2	1	RES1	0.000	
4	  O8	26.416	20.276	17.915	O.2	1	RES1	0.000	
5	  O9	23.707	19.589	14.322	O.2	1	RES1	0.000	
6	 O10	23.071	17.688	13.611	O.2	1	RES1	0.000	
7	 C19	25.580	15.496	10.274	C.2	1	RES1	0.000	
8	 C20	24.501	14.808	9.691	C.2	1	RES1	0.000	
9	 C21	23.188	14.955	10.182	C.2	1	RES1	0.000	
10	 C22	22.929	15.758	11.280	C.2	1	RES1	0.000	
11	 C23	24.018	16.429	11.858	C.2	1	RES1	0.000	
12	 C24	25.290	16.322	11.344	C.2	1	RES1	0.000	
13	 C25	26.185	17.140	12.158	C.2	1	RES1	0.000	
14	 C26	25.928	18.667	14.113	C.3	1	RES1	0.000	
15	 C27	26.856	17.963	15.136	C.3	1	RES1	0.000	
16	 C28	27.373	19.023	16.127	C.3	1	RES1	0.000	
17	 C29	26.243	19.752	16.806	C.2	1	RES1	0.000	
18	 C30	24.802	19.377	14.833	C.2	1	RES1	0.000	
19	 C31	24.068	17.363	12.998	C.2	1	RES1	0.000	
@<TRIPOS>BOND
1 6 19 2
2 7 8 ar
3 7 12 ar
4 8 9 ar
5 9 10 ar
6 10 11 ar
7 11 12 ar
8 11 19 ar
9 12 13 ar
10 1 13 ar
11 3 13 2
12 1 14 1
13 14 15 1
14 14 18 1
15 15 16 1
16 16 17 1
17 2 17 1
18 4 17 2
19 2 18 1
20 5 18 2
21 1 19 ar
@<TRIPOS>SUBSTRUCTURE
1	RES1	1	GROUP	1 ****	RES
