# created with PyMOL 2.5.2
@<TRIPOS>MOLECULE
BTK_7BQU_E3ligase
19 21 1                 
SMALL
USER_CHARGES
@<TRIPOS>ATOM
1	  N4	25.418	17.673	13.163	N.2	1	RES1	0.000	
2	  N5	25.098	19.883	16.085	N.pl3	1	RES1	0.000	
3	  O6	27.390	17.204	11.989	O.2	1	RES1	0.000	
4	  O7	26.391	20.327	17.894	O.2	1	RES1	0.000	
5	  O8	23.718	19.600	14.275	O.2	1	RES1	0.000	
6	  O9	23.114	17.694	13.628	O.2	1	RES1	0.000	
7	 C17	25.567	15.520	10.234	C.2	1	RES1	0.000	
8	 C18	24.470	14.856	9.657	C.2	1	RES1	0.000	
9	 C19	23.191	14.969	10.169	C.2	1	RES1	0.000	
10	 C20	22.912	15.785	11.259	C.2	1	RES1	0.000	
11	 C21	24.022	16.441	11.842	C.2	1	RES1	0.000	
12	 C22	25.291	16.307	11.355	C.2	1	RES1	0.000	
13	 C23	26.176	17.083	12.173	C.2	1	RES1	0.000	
14	 C24	25.925	18.609	14.152	C.3	1	RES1	0.000	
15	 C25	26.841	17.959	15.194	C.3	1	RES1	0.000	
16	 C26	27.356	19.037	16.139	C.3	1	RES1	0.000	
17	 C27	26.245	19.794	16.793	C.2	1	RES1	0.000	
18	 C28	24.809	19.381	14.831	C.2	1	RES1	0.000	
19	 C29	24.060	17.332	13.008	C.2	1	RES1	0.000	
@<TRIPOS>BOND
1 7 8 ar
2 7 12 ar
3 8 9 ar
4 9 10 ar
5 10 11 ar
6 11 12 ar
7 11 19 ar
8 12 13 ar
9 1 13 ar
10 3 13 2
11 1 14 1
12 14 15 1
13 14 18 1
14 15 16 1
15 16 17 1
16 2 17 1
17 4 17 2
18 2 18 1
19 5 18 2
20 1 19 ar
21 6 19 2
@<TRIPOS>SUBSTRUCTURE
1	RES1	1	GROUP	1 ****	RES
