# created with PyMOL 2.5.2
@<TRIPOS>MOLECULE
BTK_7BQU_E3ligase
19 21 1                 
SMALL
USER_CHARGES
@<TRIPOS>ATOM
1	  N4	25.451	17.717	13.123	N.2	1	RES1	0.000	
2	  N5	25.045	19.873	16.042	N.pl3	1	RES1	0.000	
3	  O5	27.409	17.217	11.924	O.2	1	RES1	0.000	
4	  O6	26.292	20.274	17.916	O.2	1	RES1	0.000	
5	  O7	23.756	19.594	14.212	O.2	1	RES1	0.000	
6	  O8	23.150	17.717	13.668	O.2	1	RES1	0.000	
7	 C15	25.523	15.502	10.242	C.2	1	RES1	0.000	
8	 C16	24.442	14.844	9.671	C.2	1	RES1	0.000	
9	 C17	23.163	14.989	10.198	C.2	1	RES1	0.000	
10	 C18	22.944	15.806	11.317	C.2	1	RES1	0.000	
11	 C19	24.024	16.445	11.867	C.2	1	RES1	0.000	
12	 C20	25.282	16.314	11.351	C.2	1	RES1	0.000	
13	 C21	26.204	17.114	12.129	C.2	1	RES1	0.000	
14	 C22	25.994	18.605	14.151	C.3	1	RES1	0.000	
15	 C23	26.845	17.964	15.199	C.3	1	RES1	0.000	
16	 C24	27.349	19.005	16.179	C.3	1	RES1	0.000	
17	 C25	26.197	19.740	16.817	C.2	1	RES1	0.000	
18	 C26	24.811	19.391	14.812	C.2	1	RES1	0.000	
19	 C27	24.113	17.342	13.023	C.2	1	RES1	0.000	
@<TRIPOS>BOND
1 7 8 ar
2 7 12 ar
3 8 9 ar
4 9 10 ar
5 10 11 ar
6 11 12 ar
7 11 19 ar
8 12 13 ar
9 1 13 ar
10 3 13 2
11 1 14 1
12 14 15 1
13 14 18 1
14 15 16 1
15 16 17 1
16 2 17 1
17 4 17 2
18 2 18 1
19 5 18 2
20 1 19 ar
21 6 19 2
@<TRIPOS>SUBSTRUCTURE
1	RES1	1	GROUP	1 ****	RES
