# created with PyMOL 2.5.2
@<TRIPOS>MOLECULE
BTK_7BQU_E3ligase
19 21 1                 
SMALL
USER_CHARGES
@<TRIPOS>ATOM
1	  N4	25.407	17.700	13.131	N.2	1	RES1	0.000	
2	  N5	25.082	19.863	16.089	N.pl3	1	RES1	0.000	
3	  O9	27.382	17.224	11.952	O.2	1	RES1	0.000	
4	 O10	26.372	20.294	17.923	O.2	1	RES1	0.000	
5	 O11	23.710	19.596	14.292	O.2	1	RES1	0.000	
6	 O12	23.091	17.699	13.637	O.2	1	RES1	0.000	
7	 C23	25.563	15.488	10.232	C.2	1	RES1	0.000	
8	 C24	24.476	14.826	9.666	C.2	1	RES1	0.000	
9	 C25	23.190	14.963	10.191	C.2	1	RES1	0.000	
10	 C26	22.917	15.789	11.287	C.2	1	RES1	0.000	
11	 C27	24.019	16.435	11.842	C.2	1	RES1	0.000	
12	 C28	25.302	16.304	11.361	C.2	1	RES1	0.000	
13	 C29	26.188	17.118	12.156	C.2	1	RES1	0.000	
14	 C30	25.947	18.638	14.130	C.3	1	RES1	0.000	
15	 C31	26.861	17.977	15.181	C.3	1	RES1	0.000	
16	 C32	27.371	19.037	16.140	C.3	1	RES1	0.000	
17	 C33	26.243	19.769	16.806	C.2	1	RES1	0.000	
18	 C34	24.801	19.384	14.846	C.2	1	RES1	0.000	
19	 C35	24.071	17.351	12.976	C.2	1	RES1	0.000	
@<TRIPOS>BOND
1 4 17 2
2 5 18 2
3 6 19 2
4 7 8 ar
5 7 12 ar
6 8 9 ar
7 9 10 ar
8 10 11 ar
9 11 12 ar
10 11 19 ar
11 12 13 ar
12 1 13 ar
13 3 13 2
14 1 14 1
15 14 15 1
16 14 18 1
17 15 16 1
18 16 17 1
19 2 17 1
20 2 18 1
21 1 19 ar
@<TRIPOS>SUBSTRUCTURE
1	RES1	1	GROUP	1 ****	RES
