# created with PyMOL 2.5.2
@<TRIPOS>MOLECULE
KIT_7BQU_E3ligase
19 21 1                 
SMALL
USER_CHARGES
@<TRIPOS>ATOM
1	  N3	25.422	17.723	13.128	N.2	1	RES1	0.000	
2	  N4	25.082	19.876	16.074	N.pl3	1	RES1	0.000	
3	  O4	27.405	17.224	11.937	O.2	1	RES1	0.000	
4	  O5	26.360	20.300	17.917	O.2	1	RES1	0.000	
5	  O6	23.723	19.599	14.264	O.2	1	RES1	0.000	
6	  O7	23.097	17.693	13.640	O.2	1	RES1	0.000	
7	 C11	25.563	15.501	10.268	C.2	1	RES1	0.000	
8	 C12	24.480	14.833	9.649	C.2	1	RES1	0.000	
9	 C13	23.181	14.963	10.203	C.2	1	RES1	0.000	
10	 C14	22.924	15.783	11.306	C.2	1	RES1	0.000	
11	 C15	24.026	16.426	11.861	C.2	1	RES1	0.000	
12	 C16	25.279	16.320	11.345	C.2	1	RES1	0.000	
13	 C17	26.168	17.123	12.159	C.2	1	RES1	0.000	
14	 C18	25.969	18.655	14.137	C.3	1	RES1	0.000	
15	 C19	26.858	17.965	15.182	C.3	1	RES1	0.000	
16	 C20	27.373	18.998	16.153	C.3	1	RES1	0.000	
17	 C21	26.218	19.747	16.824	C.2	1	RES1	0.000	
18	 C22	24.792	19.373	14.814	C.2	1	RES1	0.000	
19	 C23	24.075	17.352	12.979	C.2	1	RES1	0.000	
@<TRIPOS>BOND
1 7 8 ar
2 7 12 ar
3 8 9 ar
4 9 10 ar
5 10 11 ar
6 11 12 ar
7 11 19 ar
8 12 13 ar
9 1 13 ar
10 3 13 2
11 1 14 1
12 14 15 1
13 14 18 1
14 15 16 1
15 16 17 1
16 2 17 1
17 4 17 2
18 2 18 1
19 5 18 2
20 1 19 ar
21 6 19 2
@<TRIPOS>SUBSTRUCTURE
1	RES1	1	GROUP	1 ****	RES
