# created with PyMOL 2.5.2
@<TRIPOS>MOLECULE
KIT_7BQU_E3ligase
19 21 1                 
SMALL
USER_CHARGES
@<TRIPOS>ATOM
1	  N3	25.419	17.719	13.132	N.2	1	RES1	0.000	
2	  N4	25.085	19.877	16.070	N.pl3	1	RES1	0.000	
3	  O4	23.109	17.688	13.650	O.2	1	RES1	0.000	
4	  O5	26.336	20.281	17.927	O.2	1	RES1	0.000	
5	  O6	23.735	19.620	14.258	O.2	1	RES1	0.000	
6	  O7	27.390	17.229	11.940	O.2	1	RES1	0.000	
7	 C15	22.939	15.779	11.284	C.2	1	RES1	0.000	
8	 C16	23.162	14.956	10.191	C.2	1	RES1	0.000	
9	 C17	24.445	14.822	9.669	C.2	1	RES1	0.000	
10	 C18	25.546	15.499	10.242	C.2	1	RES1	0.000	
11	 C19	25.296	16.312	11.345	C.2	1	RES1	0.000	
12	 C20	24.036	16.449	11.869	C.2	1	RES1	0.000	
13	 C21	24.117	17.340	12.989	C.2	1	RES1	0.000	
14	 C22	25.964	18.638	14.135	C.3	1	RES1	0.000	
15	 C23	26.839	17.972	15.189	C.3	1	RES1	0.000	
16	 C24	27.360	19.009	16.165	C.3	1	RES1	0.000	
17	 C25	26.222	19.743	16.810	C.2	1	RES1	0.000	
18	 C26	24.808	19.393	14.818	C.2	1	RES1	0.000	
19	 C27	26.187	17.127	12.156	C.2	1	RES1	0.000	
@<TRIPOS>BOND
1 7 8 ar
2 7 12 ar
3 8 9 ar
4 9 10 ar
5 10 11 ar
6 11 12 ar
7 11 19 ar
8 12 13 ar
9 1 13 ar
10 3 13 2
11 1 14 1
12 14 15 1
13 14 18 1
14 15 16 1
15 16 17 1
16 2 17 1
17 4 17 2
18 2 18 1
19 5 18 2
20 1 19 ar
21 6 19 2
@<TRIPOS>SUBSTRUCTURE
1	RES1	1	GROUP	1 ****	RES
