# created with PyMOL 2.5.2
@<TRIPOS>MOLECULE
KIT_7BQU_E3ligase
19 21 1                 
SMALL
USER_CHARGES
@<TRIPOS>ATOM
1	  N3	25.404	17.743	13.129	N.2	1	RES1	0.000	
2	  N4	25.070	19.847	16.071	N.pl3	1	RES1	0.000	
3	  O7	27.396	17.244	11.930	O.2	1	RES1	0.000	
4	  O8	26.341	20.250	17.916	O.2	1	RES1	0.000	
5	  O9	23.737	19.608	14.288	O.2	1	RES1	0.000	
6	 O10	23.117	17.708	13.637	O.2	1	RES1	0.000	
7	 C17	25.566	15.522	10.254	C.2	1	RES1	0.000	
8	 C18	24.480	14.825	9.698	C.2	1	RES1	0.000	
9	 C19	23.170	14.953	10.218	C.2	1	RES1	0.000	
10	 C20	22.931	15.770	11.317	C.2	1	RES1	0.000	
11	 C21	24.025	16.440	11.876	C.2	1	RES1	0.000	
12	 C22	25.291	16.291	11.349	C.2	1	RES1	0.000	
13	 C23	26.190	17.149	12.135	C.2	1	RES1	0.000	
14	 C24	25.965	18.659	14.125	C.3	1	RES1	0.000	
15	 C25	26.861	17.973	15.151	C.3	1	RES1	0.000	
16	 C26	27.347	18.995	16.158	C.3	1	RES1	0.000	
17	 C27	26.229	19.733	16.802	C.2	1	RES1	0.000	
18	 C28	24.783	19.393	14.799	C.2	1	RES1	0.000	
19	 C29	24.091	17.349	12.985	C.2	1	RES1	0.000	
@<TRIPOS>BOND
1 6 19 2
2 7 8 ar
3 7 12 ar
4 8 9 ar
5 9 10 ar
6 10 11 ar
7 11 12 ar
8 11 19 ar
9 12 13 ar
10 1 13 ar
11 3 13 2
12 1 14 1
13 14 15 1
14 14 18 1
15 15 16 1
16 16 17 1
17 2 17 1
18 4 17 2
19 2 18 1
20 5 18 2
21 1 19 ar
@<TRIPOS>SUBSTRUCTURE
1	RES1	1	GROUP	1 ****	RES
