# created with PyMOL 2.5.2
@<TRIPOS>MOLECULE
KIT_6H0G_E3ligase
20 22 1                 
SMALL
USER_CHARGES
@<TRIPOS>ATOM
1	  N2	1.980	54.435	-85.585	N.pl3	1	RES1	0.000	
2	  O2	2.805	53.734	-82.850	O.2	1	RES1	0.000	
3	  N3	1.732	51.763	-82.120	N.2	1	RES1	0.000	
4	  O3	3.691	49.689	-77.399	O.2	1	RES1	0.000	
5	  N4	1.982	50.076	-78.881	N.pl3	1	RES1	0.000	
6	  O4	0.211	50.467	-80.216	O.2	1	RES1	0.000	
7	  O5	0.416	49.820	-82.239	O.2	1	RES1	0.000	
8	 C11	1.335	53.228	-85.430	C.2	1	RES1	0.000	
9	 C12	0.538	52.686	-86.463	C.2	1	RES1	0.000	
10	 C13	-0.190	51.488	-86.285	C.2	1	RES1	0.000	
11	 C14	-0.115	50.764	-85.080	C.2	1	RES1	0.000	
12	 C15	0.645	51.339	-84.074	C.2	1	RES1	0.000	
13	 C16	1.333	52.496	-84.227	C.2	1	RES1	0.000	
14	 C17	2.065	52.783	-82.992	C.2	1	RES1	0.000	
15	 C18	2.240	51.623	-80.748	C.3	1	RES1	0.000	
16	 C19	3.729	51.243	-80.681	C.3	1	RES1	0.000	
17	 C20	4.167	51.197	-79.205	C.3	1	RES1	0.000	
18	 C21	3.265	50.250	-78.422	C.2	1	RES1	0.000	
19	 C22	1.382	50.670	-79.942	C.2	1	RES1	0.000	
20	 C23	0.915	50.841	-82.724	C.2	1	RES1	0.000	
@<TRIPOS>BOND
1 1 8 1
2 8 9 ar
3 8 13 ar
4 9 10 ar
5 10 11 ar
6 11 12 ar
7 12 13 ar
8 12 20 ar
9 13 14 ar
10 2 14 2
11 3 14 ar
12 3 15 1
13 15 16 1
14 15 19 1
15 16 17 1
16 17 18 1
17 4 18 2
18 5 18 1
19 5 19 1
20 6 19 2
21 3 20 ar
22 7 20 2
@<TRIPOS>SUBSTRUCTURE
1	RES1	1	GROUP	1 ****	RES
