# created with PyMOL 2.5.2
@<TRIPOS>MOLECULE
KIT_6H0G_E3ligase
20 22 1                 
SMALL
USER_CHARGES
@<TRIPOS>ATOM
1	  N2	1.995	54.431	-85.626	N.pl3	1	RES1	0.000	
2	  O2	2.824	53.774	-82.855	O.2	1	RES1	0.000	
3	  N3	1.724	51.800	-82.096	N.2	1	RES1	0.000	
4	  O3	3.700	49.647	-77.413	O.3	1	RES1	0.000	
5	  N4	1.996	50.052	-78.870	N.pl3	1	RES1	0.000	
6	  O4	0.211	50.386	-80.225	O.2	1	RES1	0.000	
7	  O5	0.427	49.854	-82.230	O.2	1	RES1	0.000	
8	 C13	1.361	53.195	-85.466	C.2	1	RES1	0.000	
9	 C14	0.517	52.654	-86.490	C.2	1	RES1	0.000	
10	 C15	-0.185	51.477	-86.257	C.2	1	RES1	0.000	
11	 C16	-0.129	50.768	-85.054	C.2	1	RES1	0.000	
12	 C17	0.656	51.345	-84.076	C.2	1	RES1	0.000	
13	 C18	1.359	52.508	-84.240	C.2	1	RES1	0.000	
14	 C19	2.040	52.796	-82.977	C.2	1	RES1	0.000	
15	 C20	2.223	51.665	-80.727	C.3	1	RES1	0.000	
16	 C21	3.703	51.289	-80.665	C.3	1	RES1	0.000	
17	 C22	4.122	51.227	-79.199	C.3	1	RES1	0.000	
18	 C23	3.287	50.229	-78.427	C.3	1	RES1	0.000	
19	 C24	1.387	50.619	-79.963	C.2	1	RES1	0.000	
20	 C25	0.909	50.875	-82.711	C.2	1	RES1	0.000	
@<TRIPOS>BOND
1 1 8 1
2 8 9 ar
3 8 13 ar
4 9 10 ar
5 10 11 ar
6 11 12 ar
7 12 13 ar
8 12 20 ar
9 13 14 ar
10 2 14 2
11 3 14 ar
12 3 15 1
13 15 16 1
14 15 19 1
15 16 17 1
16 17 18 1
17 4 18 1
18 5 18 1
19 5 19 1
20 6 19 2
21 3 20 ar
22 7 20 2
@<TRIPOS>SUBSTRUCTURE
1	RES1	1	GROUP	1 ****	RES
