# created with PyMOL 2.5.2
@<TRIPOS>MOLECULE
BRD2_7BQU_E3ligase
19 21 1                 
SMALL
USER_CHARGES
@<TRIPOS>ATOM
1	  O2	27.392	17.213	11.944	O.2	1	RES1	0.000	
2	  O3	26.321	20.292	17.906	O.2	1	RES1	0.000	
3	  O4	23.765	19.627	14.238	O.2	1	RES1	0.000	
4	  O5	23.121	17.684	13.654	O.2	1	RES1	0.000	
5	  N6	25.432	17.713	13.137	N.2	1	RES1	0.000	
6	  N7	25.070	19.890	16.065	N.pl3	1	RES1	0.000	
7	 C18	25.546	15.501	10.240	C.2	1	RES1	0.000	
8	 C19	24.460	14.867	9.667	C.2	1	RES1	0.000	
9	 C20	23.167	14.987	10.187	C.2	1	RES1	0.000	
10	 C21	22.927	15.788	11.313	C.2	1	RES1	0.000	
11	 C22	24.024	16.453	11.872	C.2	1	RES1	0.000	
12	 C23	25.282	16.299	11.350	C.2	1	RES1	0.000	
13	 C24	26.205	17.117	12.139	C.2	1	RES1	0.000	
14	 C25	25.963	18.621	14.149	C.3	1	RES1	0.000	
15	 C26	26.855	17.937	15.196	C.3	1	RES1	0.000	
16	 C27	27.348	19.008	16.172	C.3	1	RES1	0.000	
17	 C28	26.209	19.783	16.802	C.2	1	RES1	0.000	
18	 C29	24.817	19.351	14.802	C.2	1	RES1	0.000	
19	 C30	24.090	17.323	13.006	C.2	1	RES1	0.000	
@<TRIPOS>BOND
1 1 13 2
2 7 8 ar
3 7 12 ar
4 8 9 ar
5 9 10 ar
6 10 11 ar
7 11 12 ar
8 11 19 ar
9 12 13 ar
10 5 13 ar
11 5 14 1
12 14 15 1
13 14 18 1
14 15 16 1
15 16 17 1
16 2 17 2
17 6 17 1
18 3 18 2
19 6 18 1
20 4 19 2
21 5 19 ar
@<TRIPOS>SUBSTRUCTURE
1	RES1	1	GROUP	1 ****	RES
