# created with PyMOL 2.5.2
@<TRIPOS>MOLECULE
KIT_6H0G_E3ligase
20 22 1                 
SMALL
USER_CHARGES
@<TRIPOS>ATOM
1	  O1	2.802	53.770	-82.841	O.2	1	RES1	0.000	
2	  N2	1.960	54.459	-85.620	N.pl3	1	RES1	0.000	
3	  O2	3.699	49.654	-77.437	O.2	1	RES1	0.000	
4	  N3	1.730	51.810	-82.095	N.2	1	RES1	0.000	
5	  O3	0.198	50.450	-80.220	O.2	1	RES1	0.000	
6	  N4	1.969	50.057	-78.878	N.pl3	1	RES1	0.000	
7	  O4	0.440	49.819	-82.226	O.2	1	RES1	0.000	
8	 C11	1.343	53.196	-85.442	C.2	1	RES1	0.000	
9	 C12	0.542	52.676	-86.474	C.2	1	RES1	0.000	
10	 C13	-0.168	51.471	-86.280	C.2	1	RES1	0.000	
11	 C14	-0.118	50.756	-85.057	C.2	1	RES1	0.000	
12	 C15	0.661	51.335	-84.067	C.2	1	RES1	0.000	
13	 C16	1.346	52.499	-84.246	C.2	1	RES1	0.000	
14	 C17	2.044	52.800	-82.990	C.2	1	RES1	0.000	
15	 C18	2.227	51.663	-80.732	C.3	1	RES1	0.000	
16	 C19	3.723	51.266	-80.656	C.3	1	RES1	0.000	
17	 C20	4.158	51.173	-79.217	C.3	1	RES1	0.000	
18	 C21	3.286	50.225	-78.428	C.2	1	RES1	0.000	
19	 C22	1.382	50.642	-79.963	C.2	1	RES1	0.000	
20	 C23	0.898	50.873	-82.695	C.2	1	RES1	0.000	
@<TRIPOS>BOND
1 1 14 2
2 3 18 2
3 2 8 1
4 8 9 ar
5 8 13 ar
6 9 10 ar
7 10 11 ar
8 11 12 ar
9 12 13 ar
10 12 20 ar
11 13 14 ar
12 4 14 ar
13 4 15 1
14 15 16 1
15 15 19 1
16 16 17 1
17 17 18 1
18 6 18 1
19 5 19 2
20 6 19 1
21 4 20 ar
22 7 20 2
@<TRIPOS>SUBSTRUCTURE
1	RES1	1	GROUP	1 ****	RES
