# created with PyMOL 2.5.2
@<TRIPOS>MOLECULE
KIT_6H0G_E3ligase
20 22 1                 
SMALL
USER_CHARGES
@<TRIPOS>ATOM
1	  N3	1.962	54.451	-85.622	N.pl3	1	RES1	0.000	
2	  O3	2.792	53.772	-82.872	O.2	1	RES1	0.000	
3	  N4	1.714	51.795	-82.093	N.2	1	RES1	0.000	
4	  O4	3.687	49.665	-77.416	O.2	1	RES1	0.000	
5	  N5	1.999	50.078	-78.852	N.pl3	1	RES1	0.000	
6	  O5	0.184	50.460	-80.176	O.2	1	RES1	0.000	
7	  O6	0.452	49.820	-82.272	O.2	1	RES1	0.000	
8	 C19	1.324	53.224	-85.447	C.2	1	RES1	0.000	
9	 C20	0.526	52.663	-86.471	C.2	1	RES1	0.000	
10	 C21	-0.181	51.476	-86.271	C.2	1	RES1	0.000	
11	 C22	-0.079	50.764	-85.069	C.2	1	RES1	0.000	
12	 C23	0.690	51.304	-84.056	C.2	1	RES1	0.000	
13	 C24	1.345	52.519	-84.236	C.2	1	RES1	0.000	
14	 C25	2.070	52.809	-82.999	C.2	1	RES1	0.000	
15	 C26	2.231	51.650	-80.714	C.3	1	RES1	0.000	
16	 C27	3.694	51.231	-80.694	C.3	1	RES1	0.000	
17	 C28	4.158	51.157	-79.246	C.3	1	RES1	0.000	
18	 C29	3.277	50.227	-78.431	C.2	1	RES1	0.000	
19	 C30	1.375	50.662	-79.929	C.2	1	RES1	0.000	
20	 C31	0.904	50.865	-82.703	C.2	1	RES1	0.000	
@<TRIPOS>BOND
1 1 8 1
2 8 9 ar
3 8 13 ar
4 9 10 ar
5 10 11 ar
6 11 12 ar
7 12 13 ar
8 12 20 ar
9 13 14 ar
10 2 14 2
11 3 14 ar
12 3 15 1
13 15 16 1
14 15 19 1
15 16 17 1
16 17 18 1
17 4 18 2
18 5 18 1
19 5 19 1
20 6 19 2
21 3 20 ar
22 7 20 2
@<TRIPOS>SUBSTRUCTURE
1	RES1	1	GROUP	1 ****	RES
