# created with PyMOL 2.5.2
@<TRIPOS>MOLECULE
KIT_7BQU_E3ligase
19 21 1                 
SMALL
USER_CHARGES
@<TRIPOS>ATOM
1	  N3	25.450	17.692	13.126	N.2	1	RES1	0.000	
2	  O3	23.161	17.696	13.646	O.2	1	RES1	0.000	
3	  N4	25.071	19.879	16.048	N.pl3	1	RES1	0.000	
4	  O4	26.294	20.300	17.917	O.2	1	RES1	0.000	
5	  O5	23.751	19.614	14.237	O.2	1	RES1	0.000	
6	  O6	27.390	17.205	11.931	O.2	1	RES1	0.000	
7	 C12	24.442	14.843	9.659	C.2	1	RES1	0.000	
8	 C13	23.147	14.997	10.202	C.2	1	RES1	0.000	
9	 C14	22.926	15.789	11.328	C.2	1	RES1	0.000	
10	 C15	24.029	16.450	11.856	C.2	1	RES1	0.000	
11	 C16	24.098	17.364	13.020	C.2	1	RES1	0.000	
12	 C17	25.978	18.604	14.146	C.3	1	RES1	0.000	
13	 C18	26.833	17.965	15.233	C.3	1	RES1	0.000	
14	 C19	27.353	18.999	16.165	C.3	1	RES1	0.000	
15	 C20	26.203	19.760	16.810	C.2	1	RES1	0.000	
16	 C21	24.811	19.371	14.811	C.2	1	RES1	0.000	
17	 C22	26.213	17.104	12.135	C.2	1	RES1	0.000	
18	 C23	25.310	16.314	11.327	C.2	1	RES1	0.000	
19	 C24	25.533	15.508	10.243	C.2	1	RES1	0.000	
@<TRIPOS>BOND
1 7 8 ar
2 7 19 ar
3 8 9 ar
4 9 10 ar
5 10 11 ar
6 10 18 ar
7 1 11 ar
8 2 11 2
9 1 12 1
10 12 13 1
11 12 16 1
12 13 14 1
13 14 15 1
14 3 15 1
15 4 15 2
16 3 16 1
17 5 16 2
18 1 17 ar
19 6 17 2
20 17 18 ar
21 18 19 ar
@<TRIPOS>SUBSTRUCTURE
1	RES1	1	GROUP	1 ****	RES
