# created with PyMOL 2.5.2
@<TRIPOS>MOLECULE
KIT_7BQU_E3ligase
19 21 1                 
SMALL
USER_CHARGES
@<TRIPOS>ATOM
1	  N3	25.415	17.666	13.151	N.2	1	RES1	0.000	
2	  O3	23.133	17.667	13.677	O.2	1	RES1	0.000	
3	  N4	25.089	19.918	16.063	N.pl3	1	RES1	0.000	
4	  O4	26.351	20.304	17.902	O.2	1	RES1	0.000	
5	  O5	23.786	19.658	14.227	O.2	1	RES1	0.000	
6	  O6	27.374	17.249	11.929	O.2	1	RES1	0.000	
7	 C14	24.471	14.850	9.658	C.2	1	RES1	0.000	
8	 C15	23.169	14.966	10.189	C.2	1	RES1	0.000	
9	 C16	22.921	15.768	11.307	C.2	1	RES1	0.000	
10	 C17	24.031	16.427	11.852	C.2	1	RES1	0.000	
11	 C18	24.077	17.320	13.020	C.2	1	RES1	0.000	
12	 C19	25.961	18.608	14.158	C.3	1	RES1	0.000	
13	 C20	26.796	17.909	15.213	C.3	1	RES1	0.000	
14	 C21	27.331	18.970	16.196	C.3	1	RES1	0.000	
15	 C22	26.218	19.769	16.814	C.2	1	RES1	0.000	
16	 C23	24.834	19.431	14.788	C.2	1	RES1	0.000	
17	 C24	26.196	17.141	12.130	C.2	1	RES1	0.000	
18	 C25	25.295	16.322	11.342	C.2	1	RES1	0.000	
19	 C26	25.545	15.512	10.223	C.2	1	RES1	0.000	
@<TRIPOS>BOND
1 7 8 ar
2 7 19 ar
3 8 9 ar
4 9 10 ar
5 10 11 ar
6 10 18 ar
7 1 11 ar
8 2 11 2
9 1 12 1
10 12 13 1
11 12 16 1
12 13 14 1
13 14 15 1
14 3 15 1
15 4 15 2
16 3 16 1
17 5 16 2
18 1 17 ar
19 6 17 2
20 17 18 ar
21 18 19 ar
@<TRIPOS>SUBSTRUCTURE
1	RES1	1	GROUP	1 ****	RES
