# created with PyMOL 2.5.2
@<TRIPOS>MOLECULE
KIT_7BQU_E3ligase
19 21 1                 
SMALL
USER_CHARGES
@<TRIPOS>ATOM
1	  O2	23.127	17.635	13.708	O.2	1	RES1	0.000	
2	  N3	25.421	17.656	13.158	N.2	1	RES1	0.000	
3	  O3	26.326	20.336	17.900	O.2	1	RES1	0.000	
4	  N4	25.100	19.935	16.039	N.pl3	1	RES1	0.000	
5	  O4	23.812	19.693	14.197	O.2	1	RES1	0.000	
6	  O5	27.383	17.234	11.931	O.2	1	RES1	0.000	
7	 C10	24.464	14.867	9.645	C.2	1	RES1	0.000	
8	 C11	23.164	14.998	10.179	C.2	1	RES1	0.000	
9	 C12	22.925	15.771	11.305	C.2	1	RES1	0.000	
10	 C13	24.016	16.426	11.861	C.2	1	RES1	0.000	
11	 C14	24.094	17.306	13.010	C.2	1	RES1	0.000	
12	 C15	25.950	18.591	14.163	C.3	1	RES1	0.000	
13	 C16	26.795	17.906	15.255	C.3	1	RES1	0.000	
14	 C17	27.331	18.944	16.212	C.3	1	RES1	0.000	
15	 C18	26.218	19.785	16.804	C.2	1	RES1	0.000	
16	 C19	24.845	19.426	14.788	C.2	1	RES1	0.000	
17	 C20	26.199	17.108	12.149	C.2	1	RES1	0.000	
18	 C21	25.276	16.312	11.322	C.2	1	RES1	0.000	
19	 C22	25.550	15.524	10.211	C.2	1	RES1	0.000	
@<TRIPOS>BOND
1 7 8 ar
2 7 19 ar
3 8 9 ar
4 9 10 ar
5 10 11 ar
6 10 18 ar
7 1 11 2
8 2 11 ar
9 2 12 1
10 12 13 1
11 12 16 1
12 13 14 1
13 14 15 1
14 3 15 2
15 4 15 1
16 4 16 1
17 5 16 2
18 2 17 ar
19 6 17 2
20 17 18 ar
21 18 19 ar
@<TRIPOS>SUBSTRUCTURE
1	RES1	1	GROUP	1 ****	RES
