# created with PyMOL 2.5.2
@<TRIPOS>MOLECULE
KIT_7BQU_E3ligase
19 21 1                 
SMALL
USER_CHARGES
@<TRIPOS>ATOM
1	  O2	23.134	17.679	13.669	O.2	1	RES1	0.000	
2	  N3	25.439	17.694	13.154	N.2	1	RES1	0.000	
3	  O3	26.324	20.305	17.929	O.2	1	RES1	0.000	
4	  N4	25.073	19.884	16.057	N.pl3	1	RES1	0.000	
5	  O4	23.760	19.635	14.219	O.2	1	RES1	0.000	
6	  O5	27.388	17.212	11.922	O.2	1	RES1	0.000	
7	 C11	24.452	14.843	9.647	C.2	1	RES1	0.000	
8	 C12	23.177	14.990	10.185	C.2	1	RES1	0.000	
9	 C13	22.926	15.782	11.312	C.2	1	RES1	0.000	
10	 C14	24.020	16.443	11.861	C.2	1	RES1	0.000	
11	 C15	24.098	17.332	13.003	C.2	1	RES1	0.000	
12	 C16	25.967	18.608	14.163	C.3	1	RES1	0.000	
13	 C17	26.814	17.943	15.237	C.3	1	RES1	0.000	
14	 C18	27.353	18.981	16.181	C.3	1	RES1	0.000	
15	 C19	26.225	19.790	16.809	C.2	1	RES1	0.000	
16	 C20	24.825	19.404	14.792	C.2	1	RES1	0.000	
17	 C21	26.198	17.120	12.148	C.2	1	RES1	0.000	
18	 C22	25.282	16.292	11.337	C.2	1	RES1	0.000	
19	 C23	25.539	15.515	10.213	C.2	1	RES1	0.000	
@<TRIPOS>BOND
1 7 8 ar
2 7 19 ar
3 8 9 ar
4 9 10 ar
5 10 11 ar
6 10 18 ar
7 1 11 2
8 2 11 ar
9 2 12 1
10 12 13 1
11 12 16 1
12 13 14 1
13 14 15 1
14 3 15 2
15 4 15 1
16 4 16 1
17 5 16 2
18 2 17 ar
19 6 17 2
20 17 18 ar
21 18 19 ar
@<TRIPOS>SUBSTRUCTURE
1	RES1	1	GROUP	1 ****	RES
