# created with PyMOL 2.5.2
@<TRIPOS>MOLECULE
KIT_7BQU_E3ligase
19 21 1                 
SMALL
USER_CHARGES
@<TRIPOS>ATOM
1	  O2	23.132	17.674	13.687	O.2	1	RES1	0.000	
2	  N3	25.434	17.687	13.139	N.2	1	RES1	0.000	
3	  O3	26.318	20.295	17.898	O.2	1	RES1	0.000	
4	  N4	25.084	19.909	16.044	N.pl3	1	RES1	0.000	
5	  O4	23.780	19.649	14.228	O.2	1	RES1	0.000	
6	  O5	27.400	17.223	11.924	O.2	1	RES1	0.000	
7	 C13	24.460	14.870	9.648	C.2	1	RES1	0.000	
8	 C14	23.158	14.995	10.192	C.2	1	RES1	0.000	
9	 C15	22.941	15.769	11.312	C.2	1	RES1	0.000	
10	 C16	24.025	16.441	11.860	C.2	1	RES1	0.000	
11	 C17	24.096	17.341	13.009	C.2	1	RES1	0.000	
12	 C18	25.974	18.617	14.157	C.3	1	RES1	0.000	
13	 C19	26.827	17.921	15.226	C.3	1	RES1	0.000	
14	 C20	27.343	18.981	16.190	C.3	1	RES1	0.000	
15	 C21	26.198	19.776	16.815	C.2	1	RES1	0.000	
16	 C22	24.810	19.389	14.782	C.2	1	RES1	0.000	
17	 C23	26.203	17.111	12.161	C.2	1	RES1	0.000	
18	 C24	25.261	16.300	11.342	C.2	1	RES1	0.000	
19	 C25	25.550	15.507	10.225	C.2	1	RES1	0.000	
@<TRIPOS>BOND
1 7 8 ar
2 7 19 ar
3 8 9 ar
4 9 10 ar
5 10 11 ar
6 10 18 ar
7 1 11 2
8 2 11 ar
9 2 12 1
10 12 13 1
11 12 16 1
12 13 14 1
13 14 15 1
14 3 15 2
15 4 15 1
16 4 16 1
17 5 16 2
18 2 17 ar
19 6 17 2
20 17 18 ar
21 18 19 ar
@<TRIPOS>SUBSTRUCTURE
1	RES1	1	GROUP	1 ****	RES
