# created with PyMOL 2.5.2
@<TRIPOS>MOLECULE
KIT_7BQU_E3ligase
19 21 1                 
SMALL
USER_CHARGES
@<TRIPOS>ATOM
1	  O3	23.130	17.686	13.683	O.2	1	RES1	0.000	
2	  N4	25.446	17.697	13.141	N.2	1	RES1	0.000	
3	  O4	26.306	20.282	17.907	O.2	1	RES1	0.000	
4	  N5	25.084	19.904	16.054	N.pl3	1	RES1	0.000	
5	  O5	23.768	19.650	14.228	O.2	1	RES1	0.000	
6	  O6	27.387	17.232	11.931	O.2	1	RES1	0.000	
7	 C19	24.442	14.838	9.641	C.2	1	RES1	0.000	
8	 C20	23.169	14.967	10.190	C.2	1	RES1	0.000	
9	 C21	22.932	15.779	11.313	C.2	1	RES1	0.000	
10	 C22	24.010	16.438	11.870	C.2	1	RES1	0.000	
11	 C23	24.111	17.345	13.003	C.2	1	RES1	0.000	
12	 C24	25.975	18.599	14.142	C.3	1	RES1	0.000	
13	 C25	26.829	17.945	15.216	C.3	1	RES1	0.000	
14	 C26	27.345	18.990	16.208	C.3	1	RES1	0.000	
15	 C27	26.206	19.766	16.833	C.2	1	RES1	0.000	
16	 C28	24.821	19.389	14.778	C.2	1	RES1	0.000	
17	 C29	26.208	17.123	12.150	C.2	1	RES1	0.000	
18	 C30	25.278	16.310	11.351	C.2	1	RES1	0.000	
19	 C31	25.545	15.512	10.203	C.2	1	RES1	0.000	
@<TRIPOS>BOND
1 7 8 ar
2 7 19 ar
3 8 9 ar
4 9 10 ar
5 10 11 ar
6 10 18 ar
7 1 11 2
8 2 11 ar
9 2 12 1
10 12 13 1
11 12 16 1
12 13 14 1
13 14 15 1
14 3 15 2
15 4 15 1
16 4 16 1
17 5 16 2
18 2 17 ar
19 6 17 2
20 17 18 ar
21 18 19 ar
@<TRIPOS>SUBSTRUCTURE
1	RES1	1	GROUP	1 ****	RES
