# created with PyMOL 2.5.2
@<TRIPOS>MOLECULE
KIT_7BQU_E3ligase
19 21 1                 
SMALL
USER_CHARGES
@<TRIPOS>ATOM
1	  N3	25.415	17.683	13.150	N.2	1	RES1	0.000	
2	  O3	23.099	17.663	13.671	O.2	1	RES1	0.000	
3	  N4	25.068	19.913	16.048	N.pl3	1	RES1	0.000	
4	  O4	26.357	20.306	17.921	O.2	1	RES1	0.000	
5	  O5	23.788	19.664	14.242	O.2	1	RES1	0.000	
6	  O6	27.386	17.233	11.919	O.2	1	RES1	0.000	
7	  C9	24.458	14.857	9.660	C.2	1	RES1	0.000	
8	 C10	23.176	14.955	10.177	C.2	1	RES1	0.000	
9	 C11	22.932	15.777	11.292	C.2	1	RES1	0.000	
10	 C12	24.030	16.440	11.858	C.2	1	RES1	0.000	
11	 C13	24.104	17.335	13.028	C.2	1	RES1	0.000	
12	 C14	25.954	18.612	14.139	C.3	1	RES1	0.000	
13	 C15	26.814	17.930	15.208	C.3	1	RES1	0.000	
14	 C16	27.342	18.970	16.173	C.3	1	RES1	0.000	
15	 C17	26.220	19.786	16.823	C.2	1	RES1	0.000	
16	 C18	24.822	19.399	14.807	C.2	1	RES1	0.000	
17	 C19	26.204	17.127	12.158	C.2	1	RES1	0.000	
18	 C20	25.290	16.287	11.339	C.2	1	RES1	0.000	
19	 C21	25.534	15.515	10.227	C.2	1	RES1	0.000	
@<TRIPOS>BOND
1 7 8 ar
2 8 9 ar
3 9 10 ar
4 10 11 ar
5 10 18 ar
6 1 11 ar
7 2 11 2
8 1 12 1
9 12 13 1
10 12 16 1
11 13 14 1
12 14 15 1
13 3 15 1
14 4 15 2
15 3 16 1
16 5 16 2
17 1 17 ar
18 6 17 2
19 17 18 ar
20 18 19 ar
21 7 19 ar
@<TRIPOS>SUBSTRUCTURE
1	RES1	1	GROUP	1 ****	RES
