# created with PyMOL 2.5.2
@<TRIPOS>MOLECULE
KIT_7BQU_E3ligase
19 21 1                 
SMALL
USER_CHARGES
@<TRIPOS>ATOM
1	  N3	25.431	17.682	13.163	N.2	1	RES1	0.000	
2	  N4	25.091	19.920	16.053	N.pl3	1	RES1	0.000	
3	  O4	23.134	17.668	13.671	O.2	1	RES1	0.000	
4	  O5	26.342	20.316	17.885	O.2	1	RES1	0.000	
5	  O6	23.782	19.663	14.242	O.2	1	RES1	0.000	
6	  O7	27.386	17.245	11.933	O.2	1	RES1	0.000	
7	 C11	24.448	14.840	9.643	C.2	1	RES1	0.000	
8	 C12	23.174	14.974	10.179	C.2	1	RES1	0.000	
9	 C13	22.919	15.770	11.314	C.2	1	RES1	0.000	
10	 C14	24.016	16.447	11.857	C.2	1	RES1	0.000	
11	 C15	24.100	17.322	13.005	C.2	1	RES1	0.000	
12	 C16	25.967	18.600	14.159	C.3	1	RES1	0.000	
13	 C17	26.802	17.937	15.224	C.3	1	RES1	0.000	
14	 C18	27.331	18.958	16.197	C.3	1	RES1	0.000	
15	 C19	26.198	19.766	16.825	C.2	1	RES1	0.000	
16	 C20	24.836	19.402	14.791	C.2	1	RES1	0.000	
17	 C21	26.198	17.131	12.140	C.2	1	RES1	0.000	
18	 C22	25.287	16.301	11.334	C.2	1	RES1	0.000	
19	 C23	25.550	15.510	10.223	C.2	1	RES1	0.000	
@<TRIPOS>BOND
1 7 8 ar
2 7 19 ar
3 8 9 ar
4 9 10 ar
5 10 11 ar
6 10 18 ar
7 1 11 ar
8 3 11 2
9 1 12 1
10 12 13 1
11 12 16 1
12 13 14 1
13 14 15 1
14 2 15 1
15 4 15 2
16 2 16 1
17 5 16 2
18 1 17 ar
19 6 17 2
20 17 18 ar
21 18 19 ar
@<TRIPOS>SUBSTRUCTURE
1	RES1	1	GROUP	1 ****	RES
