# created with PyMOL 2.5.2
@<TRIPOS>MOLECULE
BRD4_7BQU_E3ligase
19 21 1                 
SMALL
USER_CHARGES
@<TRIPOS>ATOM
1	  O2	27.400	17.203	11.969	O.2	1	RES1	0.000	
2	  O3	26.356	20.310	17.907	O.2	1	RES1	0.000	
3	  O4	23.716	19.593	14.310	O.2	1	RES1	0.000	
4	  O5	23.107	17.704	13.613	O.2	1	RES1	0.000	
5	  N6	25.416	17.694	13.141	N.2	1	RES1	0.000	
6	  N7	25.061	19.889	16.079	N.pl3	1	RES1	0.000	
7	 C18	25.557	15.502	10.250	C.2	1	RES1	0.000	
8	 C19	24.454	14.822	9.662	C.2	1	RES1	0.000	
9	 C20	23.197	14.977	10.192	C.2	1	RES1	0.000	
10	 C21	22.927	15.789	11.296	C.2	1	RES1	0.000	
11	 C22	24.015	16.452	11.852	C.2	1	RES1	0.000	
12	 C23	25.284	16.291	11.350	C.2	1	RES1	0.000	
13	 C24	26.210	17.111	12.154	C.2	1	RES1	0.000	
14	 C25	25.951	18.629	14.138	C.3	1	RES1	0.000	
15	 C26	26.855	17.979	15.174	C.3	1	RES1	0.000	
16	 C27	27.378	19.020	16.126	C.3	1	RES1	0.000	
17	 C28	26.245	19.756	16.812	C.2	1	RES1	0.000	
18	 C29	24.794	19.371	14.830	C.2	1	RES1	0.000	
19	 C30	24.070	17.363	12.983	C.2	1	RES1	0.000	
@<TRIPOS>BOND
1 1 13 2
2 7 8 ar
3 7 12 ar
4 8 9 ar
5 9 10 ar
6 10 11 ar
7 11 12 ar
8 11 19 ar
9 12 13 ar
10 5 13 ar
11 5 14 1
12 14 15 1
13 14 18 1
14 15 16 1
15 16 17 1
16 2 17 2
17 6 17 1
18 3 18 2
19 6 18 1
20 4 19 2
21 5 19 ar
@<TRIPOS>SUBSTRUCTURE
1	RES1	1	GROUP	1 ****	RES
