# created with PyMOL 2.5.2
@<TRIPOS>MOLECULE
CDK6_7BQU_E3ligase
19 21 1                 
SMALL
USER_CHARGES
@<TRIPOS>ATOM
1	  O5	27.394	17.208	11.972	O.2	1	RES1	0.000	
2	  O6	26.384	20.333	17.884	O.2	1	RES1	0.000	
3	  N7	25.417	17.671	13.155	N.2	1	RES1	0.000	
4	  O7	23.724	19.573	14.281	O.2	1	RES1	0.000	
5	  N8	25.069	19.885	16.082	N.pl3	1	RES1	0.000	
6	  O8	23.083	17.690	13.642	O.2	1	RES1	0.000	
7	 C22	25.575	15.499	10.237	C.2	1	RES1	0.000	
8	 C23	24.488	14.838	9.648	C.2	1	RES1	0.000	
9	 C24	23.170	14.988	10.151	C.2	1	RES1	0.000	
10	 C25	22.924	15.807	11.271	C.2	1	RES1	0.000	
11	 C26	24.030	16.433	11.864	C.2	1	RES1	0.000	
12	 C27	25.283	16.306	11.347	C.2	1	RES1	0.000	
13	 C28	26.185	17.109	12.185	C.2	1	RES1	0.000	
14	 C29	25.927	18.622	14.160	C.3	1	RES1	0.000	
15	 C30	26.853	17.952	15.194	C.3	1	RES1	0.000	
16	 C31	27.369	19.027	16.151	C.3	1	RES1	0.000	
17	 C32	26.254	19.785	16.800	C.2	1	RES1	0.000	
18	 C33	24.797	19.379	14.816	C.2	1	RES1	0.000	
19	 C34	24.068	17.348	13.001	C.2	1	RES1	0.000	
@<TRIPOS>BOND
1 7 8 ar
2 7 12 ar
3 8 9 ar
4 9 10 ar
5 10 11 ar
6 11 12 ar
7 11 19 ar
8 12 13 ar
9 1 13 2
10 3 13 ar
11 3 14 1
12 14 15 1
13 14 18 1
14 15 16 1
15 16 17 1
16 2 17 2
17 5 17 1
18 4 18 2
19 5 18 1
20 3 19 ar
21 6 19 2
@<TRIPOS>SUBSTRUCTURE
1	RES1	1	GROUP	1 ****	RES
