# created with PyMOL 2.5.2
@<TRIPOS>MOLECULE
CDK6_7BQU_E3ligase
19 21 1                 
SMALL
USER_CHARGES
@<TRIPOS>ATOM
1	  N7	25.411	17.693	13.137	N.2	1	RES1	0.000	
2	  N8	25.083	19.907	16.077	N.pl3	1	RES1	0.000	
3	  O8	27.378	17.211	11.967	O.2	1	RES1	0.000	
4	  O9	26.377	20.316	17.885	O.2	1	RES1	0.000	
5	 O10	23.741	19.588	14.292	O.2	1	RES1	0.000	
6	 O11	23.088	17.681	13.659	O.2	1	RES1	0.000	
7	 C27	25.564	15.494	10.244	C.2	1	RES1	0.000	
8	 C28	24.493	14.848	9.672	C.2	1	RES1	0.000	
9	 C29	23.197	14.990	10.165	C.2	1	RES1	0.000	
10	 C30	22.924	15.767	11.289	C.2	1	RES1	0.000	
11	 C31	24.014	16.466	11.818	C.2	1	RES1	0.000	
12	 C32	25.274	16.282	11.342	C.2	1	RES1	0.000	
13	 C33	26.183	17.108	12.163	C.2	1	RES1	0.000	
14	 C34	25.935	18.639	14.142	C.3	1	RES1	0.000	
15	 C35	26.853	17.952	15.195	C.3	1	RES1	0.000	
16	 C36	27.382	19.012	16.153	C.3	1	RES1	0.000	
17	 C37	26.230	19.773	16.814	C.2	1	RES1	0.000	
18	 C38	24.805	19.388	14.827	C.2	1	RES1	0.000	
19	 C39	24.062	17.337	12.997	C.2	1	RES1	0.000	
@<TRIPOS>BOND
1 5 18 2
2 6 19 2
3 7 8 ar
4 7 12 ar
5 8 9 ar
6 9 10 ar
7 10 11 ar
8 11 12 ar
9 11 19 ar
10 12 13 ar
11 1 13 ar
12 3 13 2
13 1 14 1
14 14 15 1
15 14 18 1
16 15 16 1
17 16 17 1
18 2 17 1
19 4 17 2
20 2 18 1
21 1 19 ar
@<TRIPOS>SUBSTRUCTURE
1	RES1	1	GROUP	1 ****	RES
