# created with PyMOL 2.5.2
@<TRIPOS>MOLECULE
CDK6_7BQU_E3ligase
19 21 1                 
SMALL
USER_CHARGES
@<TRIPOS>ATOM
1	  O5	27.404	17.203	11.963	O.2	1	RES1	0.000	
2	  O6	26.337	20.330	17.895	O.2	1	RES1	0.000	
3	  N7	25.418	17.674	13.159	N.2	1	RES1	0.000	
4	  O7	23.753	19.617	14.244	O.2	1	RES1	0.000	
5	  N8	25.089	19.904	16.051	N.pl3	1	RES1	0.000	
6	  O8	23.117	17.671	13.667	O.2	1	RES1	0.000	
7	 C23	25.553	15.524	10.246	C.2	1	RES1	0.000	
8	 C24	24.457	14.854	9.641	C.2	1	RES1	0.000	
9	 C25	23.182	14.994	10.165	C.2	1	RES1	0.000	
10	 C26	22.926	15.795	11.303	C.2	1	RES1	0.000	
11	 C27	24.005	16.434	11.845	C.2	1	RES1	0.000	
12	 C28	25.282	16.297	11.341	C.2	1	RES1	0.000	
13	 C29	26.190	17.096	12.174	C.2	1	RES1	0.000	
14	 C30	25.938	18.613	14.173	C.3	1	RES1	0.000	
15	 C31	26.833	17.940	15.190	C.3	1	RES1	0.000	
16	 C32	27.347	18.993	16.166	C.3	1	RES1	0.000	
17	 C33	26.237	19.780	16.814	C.2	1	RES1	0.000	
18	 C34	24.818	19.398	14.799	C.2	1	RES1	0.000	
19	 C35	24.105	17.336	13.001	C.2	1	RES1	0.000	
@<TRIPOS>BOND
1 7 8 ar
2 7 12 ar
3 8 9 ar
4 9 10 ar
5 10 11 ar
6 11 12 ar
7 11 19 ar
8 12 13 ar
9 1 13 2
10 3 13 ar
11 3 14 1
12 14 15 1
13 14 18 1
14 15 16 1
15 16 17 1
16 2 17 2
17 5 17 1
18 4 18 2
19 5 18 1
20 3 19 ar
21 6 19 2
@<TRIPOS>SUBSTRUCTURE
1	RES1	1	GROUP	1 ****	RES
