# created with PyMOL 2.5.2
@<TRIPOS>MOLECULE
BRD4_6H0G_E3ligase
20 22 1                 
SMALL
USER_CHARGES
@<TRIPOS>ATOM
1	  N5	1.986	54.451	-85.595	N.pl3	1	RES1	0.000	
2	  N6	1.698	51.768	-82.084	N.2	1	RES1	0.000	
3	  N7	2.009	50.081	-78.836	N.pl3	1	RES1	0.000	
4	  O7	2.790	53.754	-82.827	O.2	1	RES1	0.000	
5	  O8	3.737	49.691	-77.417	O.2	1	RES1	0.000	
6	  O9	0.204	50.434	-80.164	O.2	1	RES1	0.000	
7	 O10	0.420	49.827	-82.274	O.2	1	RES1	0.000	
8	 C27	1.324	53.220	-85.451	C.2	1	RES1	0.000	
9	 C28	0.556	52.680	-86.485	C.2	1	RES1	0.000	
10	 C29	-0.155	51.477	-86.316	C.2	1	RES1	0.000	
11	 C30	-0.080	50.761	-85.096	C.2	1	RES1	0.000	
12	 C31	0.645	51.327	-84.058	C.2	1	RES1	0.000	
13	 C32	1.339	52.512	-84.251	C.2	1	RES1	0.000	
14	 C33	2.040	52.807	-82.982	C.2	1	RES1	0.000	
15	 C34	2.207	51.625	-80.732	C.3	1	RES1	0.000	
16	 C35	3.696	51.231	-80.704	C.3	1	RES1	0.000	
17	 C36	4.157	51.198	-79.233	C.3	1	RES1	0.000	
18	 C37	3.280	50.257	-78.427	C.2	1	RES1	0.000	
19	 C38	1.383	50.655	-79.920	C.2	1	RES1	0.000	
20	 C39	0.889	50.838	-82.714	C.2	1	RES1	0.000	
@<TRIPOS>BOND
1 7 20 2
2 1 8 1
3 8 9 ar
4 8 13 ar
5 9 10 ar
6 10 11 ar
7 11 12 ar
8 12 13 ar
9 12 20 ar
10 13 14 ar
11 2 14 ar
12 4 14 2
13 2 15 1
14 15 16 1
15 15 19 1
16 16 17 1
17 17 18 1
18 3 18 1
19 5 18 2
20 3 19 1
21 6 19 2
22 2 20 ar
@<TRIPOS>SUBSTRUCTURE
1	RES1	1	GROUP	1 ****	RES
