# created with PyMOL 2.5.2
@<TRIPOS>MOLECULE
BRD4_6H0G_E3ligase
20 22 1                 
SMALL
USER_CHARGES
@<TRIPOS>ATOM
1	  N5	1.955	54.455	-85.567	N.pl3	1	RES1	0.000	
2	  O5	2.761	53.778	-82.808	O.2	1	RES1	0.000	
3	  N6	1.699	51.782	-82.099	N.2	1	RES1	0.000	
4	  O6	3.702	49.680	-77.420	O.2	1	RES1	0.000	
5	  N7	1.992	50.108	-78.842	N.pl3	1	RES1	0.000	
6	  O7	0.192	50.488	-80.135	O.2	1	RES1	0.000	
7	  O8	0.441	49.793	-82.276	O.2	1	RES1	0.000	
8	 C23	1.334	53.221	-85.447	C.2	1	RES1	0.000	
9	 C24	0.551	52.671	-86.474	C.2	1	RES1	0.000	
10	 C25	-0.148	51.458	-86.305	C.2	1	RES1	0.000	
11	 C26	-0.100	50.766	-85.096	C.2	1	RES1	0.000	
12	 C27	0.677	51.317	-84.086	C.2	1	RES1	0.000	
13	 C28	1.356	52.509	-84.236	C.2	1	RES1	0.000	
14	 C29	2.039	52.798	-82.988	C.2	1	RES1	0.000	
15	 C30	2.220	51.630	-80.730	C.3	1	RES1	0.000	
16	 C31	3.714	51.219	-80.720	C.3	1	RES1	0.000	
17	 C32	4.170	51.145	-79.262	C.3	1	RES1	0.000	
18	 C33	3.293	50.238	-78.443	C.2	1	RES1	0.000	
19	 C34	1.378	50.690	-79.920	C.2	1	RES1	0.000	
20	 C35	0.897	50.847	-82.713	C.2	1	RES1	0.000	
@<TRIPOS>BOND
1 1 8 1
2 8 9 ar
3 8 13 ar
4 9 10 ar
5 10 11 ar
6 11 12 ar
7 12 13 ar
8 12 20 ar
9 13 14 ar
10 2 14 2
11 3 14 ar
12 3 15 1
13 15 16 1
14 15 19 1
15 16 17 1
16 17 18 1
17 4 18 2
18 5 18 1
19 5 19 1
20 6 19 2
21 3 20 ar
22 7 20 2
@<TRIPOS>SUBSTRUCTURE
1	RES1	1	GROUP	1 ****	RES
