# created with PyMOL 2.5.2
@<TRIPOS>MOLECULE
BRD4_6H0G_E3ligase
20 22 1                 
SMALL
USER_CHARGES
@<TRIPOS>ATOM
1	  O4	2.782	53.782	-82.825	O.2	1	RES1	0.000	
2	  N5	1.968	54.441	-85.626	N.pl3	1	RES1	0.000	
3	  O5	3.681	49.626	-77.427	O.3	1	RES1	0.000	
4	  N6	1.735	51.830	-82.098	N.2	1	RES1	0.000	
5	  O6	0.217	50.418	-80.218	O.2	1	RES1	0.000	
6	  N7	1.992	50.046	-78.894	N.pl3	1	RES1	0.000	
7	  O7	0.433	49.829	-82.220	O.2	1	RES1	0.000	
8	 C23	1.333	53.193	-85.464	C.2	1	RES1	0.000	
9	 C24	0.542	52.650	-86.472	C.2	1	RES1	0.000	
10	 C25	-0.172	51.436	-86.275	C.2	1	RES1	0.000	
11	 C26	-0.109	50.772	-85.056	C.2	1	RES1	0.000	
12	 C27	0.656	51.357	-84.055	C.2	1	RES1	0.000	
13	 C28	1.343	52.508	-84.249	C.2	1	RES1	0.000	
14	 C29	2.059	52.813	-82.996	C.2	1	RES1	0.000	
15	 C30	2.216	51.687	-80.753	C.3	1	RES1	0.000	
16	 C31	3.698	51.283	-80.660	C.3	1	RES1	0.000	
17	 C32	4.133	51.191	-79.192	C.3	1	RES1	0.000	
18	 C33	3.313	50.197	-78.436	C.3	1	RES1	0.000	
19	 C34	1.386	50.654	-79.960	C.2	1	RES1	0.000	
20	 C35	0.920	50.880	-82.691	C.2	1	RES1	0.000	
@<TRIPOS>BOND
1 2 8 1
2 8 9 ar
3 8 13 ar
4 9 10 ar
5 10 11 ar
6 11 12 ar
7 12 13 ar
8 12 20 ar
9 13 14 ar
10 1 14 2
11 4 14 ar
12 4 15 1
13 15 16 1
14 15 19 1
15 16 17 1
16 17 18 1
17 3 18 1
18 6 18 1
19 5 19 2
20 6 19 1
21 4 20 ar
22 7 20 2
@<TRIPOS>SUBSTRUCTURE
1	RES1	1	GROUP	1 ****	RES
