# created with PyMOL 2.5.2
@<TRIPOS>MOLECULE
BRD4_6H0G_E3ligase
20 22 1                 
SMALL
USER_CHARGES
@<TRIPOS>ATOM
1	  O3	2.849	53.754	-82.852	O.2	1	RES1	0.000	
2	  O4	3.667	49.658	-77.417	O.3	1	RES1	0.000	
3	  N5	1.965	54.418	-85.613	N.pl3	1	RES1	0.000	
4	  O5	0.209	50.419	-80.256	O.2	1	RES1	0.000	
5	  N6	1.762	51.794	-82.117	N.2	1	RES1	0.000	
6	  O6	0.425	49.853	-82.227	O.2	1	RES1	0.000	
7	  N7	1.972	50.057	-78.868	N.pl3	1	RES1	0.000	
8	 C17	1.331	53.195	-85.465	C.2	1	RES1	0.000	
9	 C18	0.498	52.661	-86.456	C.2	1	RES1	0.000	
10	 C19	-0.202	51.472	-86.261	C.2	1	RES1	0.000	
11	 C20	-0.119	50.774	-85.039	C.2	1	RES1	0.000	
12	 C21	0.645	51.350	-84.035	C.2	1	RES1	0.000	
13	 C22	1.370	52.501	-84.234	C.2	1	RES1	0.000	
14	 C23	2.089	52.802	-83.012	C.2	1	RES1	0.000	
15	 C24	2.264	51.660	-80.741	C.3	1	RES1	0.000	
16	 C25	3.731	51.280	-80.651	C.3	1	RES1	0.000	
17	 C26	4.138	51.204	-79.197	C.3	1	RES1	0.000	
18	 C27	3.255	50.208	-78.414	C.3	1	RES1	0.000	
19	 C28	1.374	50.652	-79.999	C.2	1	RES1	0.000	
20	 C29	0.900	50.881	-82.714	C.2	1	RES1	0.000	
@<TRIPOS>BOND
1 3 8 1
2 8 9 ar
3 8 13 ar
4 9 10 ar
5 10 11 ar
6 11 12 ar
7 12 13 ar
8 12 20 ar
9 13 14 ar
10 1 14 2
11 5 14 ar
12 5 15 1
13 15 16 1
14 15 19 1
15 16 17 1
16 17 18 1
17 2 18 1
18 7 18 1
19 4 19 2
20 7 19 1
21 5 20 ar
22 6 20 2
@<TRIPOS>SUBSTRUCTURE
1	RES1	1	GROUP	1 ****	RES
