# created with PyMOL 2.5.2
@<TRIPOS>MOLECULE
ALK_6H0G_E3ligase
20 22 1                 
SMALL
USER_CHARGES
@<TRIPOS>ATOM
1	  N7	1.972	54.447	-85.594	N.pl3	1	RES1	0.000	
2	  N8	1.705	51.813	-82.096	N.2	1	RES1	0.000	
3	  N9	2.019	50.050	-78.876	N.pl3	1	RES1	0.000	
4	  O9	2.771	53.783	-82.829	O.2	1	RES1	0.000	
5	 O10	3.723	49.658	-77.455	O.2	1	RES1	0.000	
6	 O11	0.191	50.441	-80.208	O.2	1	RES1	0.000	
7	 O12	0.431	49.834	-82.245	O.2	1	RES1	0.000	
8	 C39	1.345	53.192	-85.446	C.2	1	RES1	0.000	
9	 C40	0.552	52.663	-86.462	C.2	1	RES1	0.000	
10	 C41	-0.145	51.445	-86.279	C.2	1	RES1	0.000	
11	 C42	-0.106	50.753	-85.083	C.2	1	RES1	0.000	
12	 C43	0.667	51.309	-84.055	C.2	1	RES1	0.000	
13	 C44	1.362	52.527	-84.232	C.2	1	RES1	0.000	
14	 C45	2.028	52.813	-82.988	C.2	1	RES1	0.000	
15	 C46	2.209	51.663	-80.726	C.3	1	RES1	0.000	
16	 C47	3.702	51.264	-80.669	C.3	1	RES1	0.000	
17	 C48	4.148	51.191	-79.222	C.3	1	RES1	0.000	
18	 C49	3.287	50.221	-78.433	C.2	1	RES1	0.000	
19	 C50	1.375	50.649	-79.963	C.2	1	RES1	0.000	
20	 C51	0.887	50.874	-82.703	C.2	1	RES1	0.000	
@<TRIPOS>BOND
1 5 18 2
2 6 19 2
3 7 20 2
4 1 8 1
5 8 9 ar
6 8 13 ar
7 9 10 ar
8 10 11 ar
9 11 12 ar
10 12 13 ar
11 12 20 ar
12 13 14 ar
13 2 14 ar
14 4 14 2
15 2 15 1
16 15 16 1
17 15 19 1
18 16 17 1
19 17 18 1
20 3 18 1
21 3 19 1
22 2 20 ar
@<TRIPOS>SUBSTRUCTURE
1	RES1	1	GROUP	1 ****	RES
