# created with PyMOL 2.5.2
@<TRIPOS>MOLECULE
BRD4_4TZ4_E3ligase
19 21 1                 
SMALL
USER_CHARGES
@<TRIPOS>ATOM
1	  N2	-46.231	59.143	-98.094	N.pl3	1	RES1	0.000	
2	  O2	-46.453	50.039	-94.890	O.2	1	RES1	0.000	
3	  N3	-45.218	55.232	-96.238	N.2	1	RES1	0.000	
4	  O3	-43.358	53.306	-95.444	O.2	1	RES1	0.000	
5	  N4	-44.942	51.722	-95.195	N.pl3	1	RES1	0.000	
6	  O4	-43.682	55.211	-94.469	O.2	1	RES1	0.000	
7	  C5	-45.397	58.847	-97.001	C.2	1	RES1	0.000	
8	  C6	-44.634	59.843	-96.371	C.2	1	RES1	0.000	
9	  C7	-43.743	59.540	-95.323	C.2	1	RES1	0.000	
10	  C8	-43.594	58.211	-94.904	C.2	1	RES1	0.000	
11	  C9	-44.338	57.245	-95.573	C.2	1	RES1	0.000	
12	 C10	-45.205	57.496	-96.595	C.2	1	RES1	0.000	
13	 C11	-45.836	56.266	-97.109	C.2	1	RES1	0.000	
14	 C12	-45.578	53.819	-96.307	C.3	1	RES1	0.000	
15	 C13	-46.975	53.524	-95.773	C.3	1	RES1	0.000	
16	 C14	-47.263	52.033	-95.919	C.3	1	RES1	0.000	
17	 C15	-46.203	51.189	-95.262	C.2	1	RES1	0.000	
18	 C16	-44.528	52.969	-95.606	C.2	1	RES1	0.000	
19	 C17	-44.341	55.789	-95.349	C.2	1	RES1	0.000	
@<TRIPOS>BOND
1 1 7 1
2 7 8 ar
3 8 9 ar
4 9 10 ar
5 10 11 ar
6 7 12 ar
7 11 12 ar
8 12 13 ar
9 3 13 ar
10 3 14 1
11 14 15 1
12 14 18 1
13 15 16 1
14 16 17 1
15 2 17 2
16 5 17 1
17 4 18 2
18 5 18 1
19 3 19 ar
20 6 19 2
21 11 19 ar
@<TRIPOS>SUBSTRUCTURE
1	RES1	1	GROUP	1 ****	RES
