# created with PyMOL 2.5.2
@<TRIPOS>MOLECULE
BRD4_4TZ4_E3ligase
19 21 1                 
SMALL
USER_CHARGES
@<TRIPOS>ATOM
1	  N2	-46.187	59.156	-98.122	N.pl3	1	RES1	0.000	
2	  O2	-46.440	50.077	-94.828	O.2	1	RES1	0.000	
3	  N3	-45.223	55.245	-96.299	N.2	1	RES1	0.000	
4	  O3	-43.342	53.286	-95.504	O.2	1	RES1	0.000	
5	  N4	-44.954	51.737	-95.172	N.pl3	1	RES1	0.000	
6	  O4	-43.705	55.215	-94.470	O.2	1	RES1	0.000	
7	  C5	-45.401	58.853	-96.985	C.2	1	RES1	0.000	
8	  C6	-44.637	59.832	-96.354	C.2	1	RES1	0.000	
9	  C7	-43.783	59.510	-95.311	C.2	1	RES1	0.000	
10	  C8	-43.603	58.201	-94.893	C.2	1	RES1	0.000	
11	  C9	-44.327	57.205	-95.579	C.2	1	RES1	0.000	
12	 C10	-45.224	57.514	-96.596	C.2	1	RES1	0.000	
13	 C11	-45.821	56.271	-97.087	C.2	1	RES1	0.000	
14	 C12	-45.578	53.811	-96.351	C.3	1	RES1	0.000	
15	 C13	-46.949	53.536	-95.758	C.3	1	RES1	0.000	
16	 C14	-47.269	52.045	-95.917	C.3	1	RES1	0.000	
17	 C15	-46.214	51.189	-95.244	C.2	1	RES1	0.000	
18	 C16	-44.505	52.980	-95.639	C.2	1	RES1	0.000	
19	 C17	-44.360	55.763	-95.317	C.2	1	RES1	0.000	
@<TRIPOS>BOND
1 1 7 1
2 7 8 ar
3 8 9 ar
4 9 10 ar
5 10 11 ar
6 7 12 ar
7 11 12 ar
8 12 13 ar
9 3 13 ar
10 3 14 1
11 14 15 1
12 14 18 1
13 15 16 1
14 16 17 1
15 2 17 2
16 5 17 1
17 4 18 2
18 5 18 1
19 3 19 ar
20 6 19 2
21 11 19 ar
@<TRIPOS>SUBSTRUCTURE
1	RES1	1	GROUP	1 ****	RES
