# created with PyMOL 2.5.2
@<TRIPOS>MOLECULE
BRD2_7BQU_E3ligase
19 21 1                 
SMALL
USER_CHARGES
@<TRIPOS>ATOM
1	  O3	27.381	17.202	11.949	O.2	1	RES1	0.000	
2	  O4	26.357	20.299	17.906	O.2	1	RES1	0.000	
3	  O5	23.731	19.613	14.295	O.2	1	RES1	0.000	
4	  N6	25.423	17.691	13.138	N.2	1	RES1	0.000	
5	  O6	23.104	17.713	13.624	O.2	1	RES1	0.000	
6	  N7	25.067	19.879	16.099	N.pl3	1	RES1	0.000	
7	 C17	25.550	15.497	10.247	C.2	1	RES1	0.000	
8	 C18	24.467	14.839	9.650	C.2	1	RES1	0.000	
9	 C19	23.182	14.987	10.191	C.2	1	RES1	0.000	
10	 C20	22.937	15.797	11.304	C.2	1	RES1	0.000	
11	 C21	24.015	16.443	11.871	C.2	1	RES1	0.000	
12	 C22	25.279	16.290	11.345	C.2	1	RES1	0.000	
13	 C23	26.196	17.102	12.167	C.2	1	RES1	0.000	
14	 C24	25.953	18.619	14.131	C.3	1	RES1	0.000	
15	 C25	26.849	17.965	15.175	C.3	1	RES1	0.000	
16	 C26	27.355	19.038	16.144	C.3	1	RES1	0.000	
17	 C27	26.235	19.775	16.795	C.2	1	RES1	0.000	
18	 C28	24.797	19.369	14.826	C.2	1	RES1	0.000	
19	 C29	24.114	17.339	12.983	C.2	1	RES1	0.000	
@<TRIPOS>BOND
1 7 8 ar
2 7 12 ar
3 8 9 ar
4 9 10 ar
5 10 11 ar
6 11 12 ar
7 11 19 ar
8 12 13 ar
9 1 13 2
10 4 13 ar
11 4 14 1
12 14 15 1
13 14 18 1
14 15 16 1
15 16 17 1
16 2 17 2
17 6 17 1
18 3 18 2
19 6 18 1
20 4 19 ar
21 5 19 2
@<TRIPOS>SUBSTRUCTURE
1	RES1	1	GROUP	1 ****	RES
