# created with PyMOL 2.5.2
@<TRIPOS>MOLECULE
BRD4_4TZ4_E3ligase
19 21 1                 
SMALL
USER_CHARGES
@<TRIPOS>ATOM
1	  N2	-46.232	59.126	-98.126	N.pl3	1	RES1	0.000	
2	  O2	-46.461	50.066	-94.886	O.2	1	RES1	0.000	
3	  N3	-45.206	55.251	-96.252	N.2	1	RES1	0.000	
4	  O3	-43.333	53.284	-95.482	O.2	1	RES1	0.000	
5	  N4	-44.954	51.716	-95.214	N.pl3	1	RES1	0.000	
6	  O4	-43.690	55.218	-94.460	O.2	1	RES1	0.000	
7	  C5	-45.386	58.826	-96.991	C.2	1	RES1	0.000	
8	  C6	-44.645	59.823	-96.381	C.2	1	RES1	0.000	
9	  C7	-43.766	59.533	-95.334	C.2	1	RES1	0.000	
10	  C8	-43.610	58.227	-94.888	C.2	1	RES1	0.000	
11	  C9	-44.324	57.220	-95.550	C.2	1	RES1	0.000	
12	 C10	-45.217	57.503	-96.579	C.2	1	RES1	0.000	
13	 C11	-45.820	56.257	-97.091	C.2	1	RES1	0.000	
14	 C12	-45.568	53.830	-96.310	C.3	1	RES1	0.000	
15	 C13	-46.955	53.536	-95.753	C.3	1	RES1	0.000	
16	 C14	-47.280	52.045	-95.903	C.3	1	RES1	0.000	
17	 C15	-46.213	51.203	-95.279	C.2	1	RES1	0.000	
18	 C16	-44.515	52.972	-95.630	C.2	1	RES1	0.000	
19	 C17	-44.348	55.788	-95.318	C.2	1	RES1	0.000	
@<TRIPOS>BOND
1 1 7 1
2 7 8 ar
3 8 9 ar
4 9 10 ar
5 10 11 ar
6 7 12 ar
7 11 12 ar
8 12 13 ar
9 3 13 ar
10 3 14 1
11 14 15 1
12 14 18 1
13 15 16 1
14 16 17 1
15 2 17 2
16 5 17 1
17 4 18 2
18 5 18 1
19 3 19 ar
20 6 19 2
21 11 19 ar
@<TRIPOS>SUBSTRUCTURE
1	RES1	1	GROUP	1 ****	RES
