# created with PyMOL 2.5.2
@<TRIPOS>MOLECULE
BRD4_4TZ4_E3ligase
19 21 1                 
SMALL
USER_CHARGES
@<TRIPOS>ATOM
1	  N2	-46.230	59.137	-98.117	N.pl3	1	RES1	0.000	
2	  O2	-46.452	50.075	-94.876	O.2	1	RES1	0.000	
3	  N3	-45.205	55.238	-96.264	N.2	1	RES1	0.000	
4	  O3	-43.327	53.271	-95.525	O.2	1	RES1	0.000	
5	  N4	-44.940	51.728	-95.205	N.pl3	1	RES1	0.000	
6	  O4	-43.704	55.221	-94.428	O.2	1	RES1	0.000	
7	  C5	-45.393	58.815	-97.007	C.2	1	RES1	0.000	
8	  C6	-44.633	59.829	-96.386	C.2	1	RES1	0.000	
9	  C7	-43.768	59.553	-95.314	C.2	1	RES1	0.000	
10	  C8	-43.614	58.213	-94.882	C.2	1	RES1	0.000	
11	  C9	-44.346	57.238	-95.560	C.2	1	RES1	0.000	
12	 C10	-45.209	57.516	-96.588	C.2	1	RES1	0.000	
13	 C11	-45.819	56.258	-97.090	C.2	1	RES1	0.000	
14	 C12	-45.575	53.808	-96.317	C.3	1	RES1	0.000	
15	 C13	-46.955	53.547	-95.736	C.3	1	RES1	0.000	
16	 C14	-47.287	52.065	-95.900	C.3	1	RES1	0.000	
17	 C15	-46.212	51.202	-95.266	C.2	1	RES1	0.000	
18	 C16	-44.513	52.928	-95.641	C.2	1	RES1	0.000	
19	 C17	-44.341	55.782	-95.321	C.2	1	RES1	0.000	
@<TRIPOS>BOND
1 1 7 1
2 7 8 ar
3 8 9 ar
4 9 10 ar
5 10 11 ar
6 7 12 ar
7 11 12 ar
8 12 13 ar
9 3 13 ar
10 3 14 1
11 14 15 1
12 14 18 1
13 15 16 1
14 16 17 1
15 2 17 2
16 5 17 1
17 4 18 2
18 5 18 1
19 3 19 ar
20 6 19 2
21 11 19 ar
@<TRIPOS>SUBSTRUCTURE
1	RES1	1	GROUP	1 ****	RES
