# created with PyMOL 2.5.2
@<TRIPOS>MOLECULE
BRD4_4TZ4_E3ligase
19 21 1                 
SMALL
USER_CHARGES
@<TRIPOS>ATOM
1	  N2	-46.223	59.131	-98.107	N.pl3	1	RES1	0.000	
2	  O2	-46.476	50.047	-94.871	O.2	1	RES1	0.000	
3	  N3	-45.186	55.257	-96.262	N.2	1	RES1	0.000	
4	  O3	-43.355	53.280	-95.488	O.2	1	RES1	0.000	
5	  N4	-44.942	51.701	-95.198	N.pl3	1	RES1	0.000	
6	  O4	-43.691	55.235	-94.464	O.2	1	RES1	0.000	
7	  C5	-45.388	58.836	-97.007	C.2	1	RES1	0.000	
8	  C6	-44.658	59.814	-96.371	C.2	1	RES1	0.000	
9	  C7	-43.778	59.532	-95.317	C.2	1	RES1	0.000	
10	  C8	-43.611	58.208	-94.888	C.2	1	RES1	0.000	
11	  C9	-44.324	57.213	-95.550	C.2	1	RES1	0.000	
12	 C10	-45.222	57.534	-96.577	C.2	1	RES1	0.000	
13	 C11	-45.804	56.266	-97.111	C.2	1	RES1	0.000	
14	 C12	-45.557	53.822	-96.319	C.3	1	RES1	0.000	
15	 C13	-46.946	53.538	-95.761	C.3	1	RES1	0.000	
16	 C14	-47.269	52.059	-95.915	C.3	1	RES1	0.000	
17	 C15	-46.230	51.197	-95.279	C.2	1	RES1	0.000	
18	 C16	-44.514	52.954	-95.610	C.2	1	RES1	0.000	
19	 C17	-44.350	55.801	-95.327	C.2	1	RES1	0.000	
@<TRIPOS>BOND
1 1 7 1
2 7 8 ar
3 8 9 ar
4 9 10 ar
5 10 11 ar
6 7 12 ar
7 11 12 ar
8 12 13 ar
9 3 13 ar
10 3 14 1
11 14 15 1
12 14 18 1
13 15 16 1
14 16 17 1
15 2 17 2
16 5 17 1
17 4 18 2
18 5 18 1
19 3 19 ar
20 6 19 2
21 11 19 ar
@<TRIPOS>SUBSTRUCTURE
1	RES1	1	GROUP	1 ****	RES
