# created with PyMOL 2.5.2
@<TRIPOS>MOLECULE
BRD4_4TZ4_E3ligase
19 21 1                 
SMALL
USER_CHARGES
@<TRIPOS>ATOM
1	  O4	-46.500	50.044	-94.915	O.2	1	RES1	0.000	
2	  O5	-43.367	53.295	-95.390	O.2	1	RES1	0.000	
3	  O6	-43.603	55.253	-94.459	O.2	1	RES1	0.000	
4	  N7	-46.320	59.120	-98.042	N.pl3	1	RES1	0.000	
5	  N8	-45.213	55.251	-96.171	N.2	1	RES1	0.000	
6	  N9	-45.000	51.737	-95.136	N.pl3	1	RES1	0.000	
7	 C21	-45.381	58.800	-97.049	C.2	1	RES1	0.000	
8	 C22	-44.672	59.828	-96.396	C.2	1	RES1	0.000	
9	 C23	-43.766	59.547	-95.347	C.2	1	RES1	0.000	
10	 C24	-43.576	58.262	-94.912	C.2	1	RES1	0.000	
11	 C25	-44.315	57.260	-95.566	C.2	1	RES1	0.000	
12	 C26	-45.177	57.529	-96.599	C.2	1	RES1	0.000	
13	 C27	-45.809	56.240	-97.043	C.2	1	RES1	0.000	
14	 C28	-45.549	53.818	-96.317	C.3	1	RES1	0.000	
15	 C29	-46.977	53.507	-95.872	C.3	1	RES1	0.000	
16	 C30	-47.251	52.000	-96.059	C.3	1	RES1	0.000	
17	 C31	-46.223	51.180	-95.292	C.2	1	RES1	0.000	
18	 C32	-44.516	52.954	-95.546	C.2	1	RES1	0.000	
19	 C33	-44.308	55.797	-95.313	C.2	1	RES1	0.000	
@<TRIPOS>BOND
1 4 7 1
2 7 8 ar
3 7 12 ar
4 8 9 ar
5 9 10 ar
6 10 11 ar
7 11 12 ar
8 11 19 ar
9 12 13 ar
10 5 13 ar
11 5 14 1
12 14 15 1
13 14 18 1
14 15 16 1
15 16 17 1
16 1 17 2
17 6 17 1
18 2 18 2
19 6 18 1
20 3 19 2
21 5 19 ar
@<TRIPOS>SUBSTRUCTURE
1	RES1	1	GROUP	1 ****	RES
