# created with PyMOL 2.5.2
@<TRIPOS>MOLECULE
BRD4_4TZ4_E3ligase
19 21 1                 
SMALL
USER_CHARGES
@<TRIPOS>ATOM
1	  O4	-46.446	50.075	-94.837	O.2	1	RES1	0.000	
2	  O5	-43.374	53.334	-95.448	O.2	1	RES1	0.000	
3	  O6	-43.687	55.201	-94.500	O.2	1	RES1	0.000	
4	  N7	-46.215	59.167	-98.098	N.pl3	1	RES1	0.000	
5	  N8	-45.228	55.248	-96.303	N.2	1	RES1	0.000	
6	  N9	-44.925	51.749	-95.138	N.pl3	1	RES1	0.000	
7	 C23	-45.386	58.842	-96.984	C.2	1	RES1	0.000	
8	 C24	-44.643	59.823	-96.356	C.2	1	RES1	0.000	
9	 C25	-43.752	59.512	-95.317	C.2	1	RES1	0.000	
10	 C26	-43.605	58.176	-94.910	C.2	1	RES1	0.000	
11	 C27	-44.350	57.209	-95.545	C.2	1	RES1	0.000	
12	 C28	-45.221	57.508	-96.583	C.2	1	RES1	0.000	
13	 C29	-45.813	56.260	-97.107	C.2	1	RES1	0.000	
14	 C30	-45.572	53.807	-96.363	C.3	1	RES1	0.000	
15	 C31	-46.948	53.533	-95.810	C.3	1	RES1	0.000	
16	 C32	-47.254	52.023	-95.924	C.3	1	RES1	0.000	
17	 C33	-46.211	51.207	-95.246	C.2	1	RES1	0.000	
18	 C34	-44.543	52.980	-95.600	C.2	1	RES1	0.000	
19	 C35	-44.349	55.770	-95.356	C.2	1	RES1	0.000	
@<TRIPOS>BOND
1 4 7 1
2 7 8 ar
3 7 12 ar
4 8 9 ar
5 9 10 ar
6 10 11 ar
7 11 12 ar
8 11 19 ar
9 12 13 ar
10 5 13 ar
11 5 14 1
12 14 15 1
13 14 18 1
14 15 16 1
15 16 17 1
16 1 17 2
17 6 17 1
18 2 18 2
19 6 18 1
20 3 19 2
21 5 19 ar
@<TRIPOS>SUBSTRUCTURE
1	RES1	1	GROUP	1 ****	RES
