# created with PyMOL 2.5.2
@<TRIPOS>MOLECULE
BRD4_4TZ4_E3ligase
19 21 1                 
SMALL
USER_CHARGES
@<TRIPOS>ATOM
1	  O4	-46.471	50.049	-94.849	O.2	1	RES1	0.000	
2	  O5	-43.357	53.283	-95.512	O.2	1	RES1	0.000	
3	  O6	-43.693	55.213	-94.456	O.2	1	RES1	0.000	
4	  N7	-46.209	59.155	-98.119	N.pl3	1	RES1	0.000	
5	  N8	-45.203	55.227	-96.279	N.2	1	RES1	0.000	
6	  N9	-44.952	51.720	-95.171	N.pl3	1	RES1	0.000	
7	 C25	-45.402	58.845	-97.010	C.2	1	RES1	0.000	
8	 C26	-44.655	59.845	-96.378	C.2	1	RES1	0.000	
9	 C27	-43.777	59.540	-95.295	C.2	1	RES1	0.000	
10	 C28	-43.625	58.204	-94.877	C.2	1	RES1	0.000	
11	 C29	-44.337	57.214	-95.548	C.2	1	RES1	0.000	
12	 C30	-45.211	57.516	-96.600	C.2	1	RES1	0.000	
13	 C31	-45.798	56.248	-97.106	C.2	1	RES1	0.000	
14	 C32	-45.561	53.790	-96.330	C.3	1	RES1	0.000	
15	 C33	-46.949	53.544	-95.767	C.3	1	RES1	0.000	
16	 C34	-47.276	52.072	-95.914	C.3	1	RES1	0.000	
17	 C35	-46.215	51.206	-95.261	C.2	1	RES1	0.000	
18	 C36	-44.500	52.957	-95.623	C.2	1	RES1	0.000	
19	 C37	-44.330	55.794	-95.325	C.2	1	RES1	0.000	
@<TRIPOS>BOND
1 4 7 1
2 7 8 ar
3 7 12 ar
4 8 9 ar
5 9 10 ar
6 10 11 ar
7 11 12 ar
8 11 19 ar
9 12 13 ar
10 5 13 ar
11 5 14 1
12 14 15 1
13 14 18 1
14 15 16 1
15 16 17 1
16 1 17 2
17 6 17 1
18 2 18 2
19 6 18 1
20 3 19 2
21 5 19 ar
@<TRIPOS>SUBSTRUCTURE
1	RES1	1	GROUP	1 ****	RES
