# created with PyMOL 2.5.2
@<TRIPOS>MOLECULE
BRD4_7BQU_E3ligase
19 21 1                 
SMALL
USER_CHARGES
@<TRIPOS>ATOM
1	  O2	23.151	17.666	13.689	O.2	1	RES1	0.000	
2	  N3	25.434	17.684	13.157	N.2	1	RES1	0.000	
3	  O3	26.326	20.293	17.914	O.2	1	RES1	0.000	
4	  N4	25.076	19.908	16.038	N.pl3	1	RES1	0.000	
5	  O4	23.774	19.667	14.207	O.2	1	RES1	0.000	
6	  C5	24.453	14.838	9.636	C.2	1	RES1	0.000	
7	  O5	27.389	17.235	11.930	O.2	1	RES1	0.000	
8	  C6	23.174	15.001	10.176	C.2	1	RES1	0.000	
9	  C7	22.945	15.782	11.305	C.2	1	RES1	0.000	
10	  C8	24.000	16.420	11.872	C.2	1	RES1	0.000	
11	  C9	24.095	17.334	13.018	C.2	1	RES1	0.000	
12	 C10	25.963	18.598	14.150	C.3	1	RES1	0.000	
13	 C11	26.812	17.928	15.230	C.3	1	RES1	0.000	
14	 C12	27.342	18.974	16.209	C.3	1	RES1	0.000	
15	 C13	26.210	19.777	16.810	C.2	1	RES1	0.000	
16	 C14	24.843	19.413	14.780	C.2	1	RES1	0.000	
17	 C15	26.191	17.108	12.156	C.2	1	RES1	0.000	
18	 C16	25.278	16.311	11.342	C.2	1	RES1	0.000	
19	 C17	25.541	15.515	10.219	C.2	1	RES1	0.000	
@<TRIPOS>BOND
1 1 11 2
2 2 11 ar
3 6 8 ar
4 8 9 ar
5 9 10 ar
6 10 11 ar
7 2 12 1
8 12 13 1
9 12 16 1
10 13 14 1
11 14 15 1
12 3 15 2
13 4 15 1
14 4 16 1
15 5 16 2
16 2 17 ar
17 7 17 2
18 17 18 ar
19 10 18 ar
20 18 19 ar
21 6 19 ar
@<TRIPOS>SUBSTRUCTURE
1	RES1	1	GROUP	1 ****	RES
