# created with PyMOL 2.5.2
@<TRIPOS>MOLECULE
BRD4_7BQU_E3ligase
19 21 1                 
SMALL
USER_CHARGES
@<TRIPOS>ATOM
1	  O4	27.398	17.217	11.951	O.2	1	RES1	0.000	
2	  O5	26.372	20.275	17.907	O.2	1	RES1	0.000	
3	  O6	23.712	19.581	14.309	O.2	1	RES1	0.000	
4	  O7	23.117	17.706	13.622	O.2	1	RES1	0.000	
5	  N8	25.411	17.725	13.142	N.2	1	RES1	0.000	
6	  N9	25.077	19.869	16.098	N.pl3	1	RES1	0.000	
7	 C23	25.567	15.498	10.261	C.2	1	RES1	0.000	
8	 C24	24.485	14.815	9.684	C.2	1	RES1	0.000	
9	 C25	23.177	14.973	10.185	C.2	1	RES1	0.000	
10	 C26	22.920	15.781	11.284	C.2	1	RES1	0.000	
11	 C27	24.031	16.449	11.863	C.2	1	RES1	0.000	
12	 C28	25.285	16.288	11.351	C.2	1	RES1	0.000	
13	 C29	26.178	17.138	12.155	C.2	1	RES1	0.000	
14	 C30	25.946	18.642	14.126	C.3	1	RES1	0.000	
15	 C31	26.849	17.979	15.157	C.3	1	RES1	0.000	
16	 C32	27.365	19.032	16.119	C.3	1	RES1	0.000	
17	 C33	26.240	19.752	16.800	C.2	1	RES1	0.000	
18	 C34	24.784	19.385	14.831	C.2	1	RES1	0.000	
19	 C35	24.079	17.349	12.996	C.2	1	RES1	0.000	
@<TRIPOS>BOND
1 7 8 ar
2 7 12 ar
3 8 9 ar
4 9 10 ar
5 10 11 ar
6 11 12 ar
7 11 19 ar
8 12 13 ar
9 1 13 2
10 5 13 ar
11 5 14 1
12 14 15 1
13 14 18 1
14 15 16 1
15 16 17 1
16 2 17 2
17 6 17 1
18 3 18 2
19 6 18 1
20 4 19 2
21 5 19 ar
@<TRIPOS>SUBSTRUCTURE
1	RES1	1	GROUP	1 ****	RES
