# created with PyMOL 2.5.2
@<TRIPOS>MOLECULE
BRD4_7BQU_E3ligase
19 21 1                 
SMALL
USER_CHARGES
@<TRIPOS>ATOM
1	  O4	23.120	17.646	13.676	O.2	1	RES1	0.000	
2	  O5	26.358	20.308	17.910	O.2	1	RES1	0.000	
3	  O6	23.798	19.707	14.207	O.2	1	RES1	0.000	
4	  O7	27.365	17.253	11.940	O.2	1	RES1	0.000	
5	  N8	25.409	17.664	13.160	N.2	1	RES1	0.000	
6	  N9	25.097	19.950	16.035	N.pl3	1	RES1	0.000	
7	 C24	22.938	15.747	11.291	C.2	1	RES1	0.000	
8	 C25	23.166	14.963	10.177	C.2	1	RES1	0.000	
9	 C26	24.475	14.873	9.638	C.2	1	RES1	0.000	
10	 C27	25.541	15.517	10.235	C.2	1	RES1	0.000	
11	 C28	25.279	16.321	11.355	C.2	1	RES1	0.000	
12	 C29	24.028	16.418	11.875	C.2	1	RES1	0.000	
13	 C30	24.085	17.308	13.016	C.2	1	RES1	0.000	
14	 C31	25.950	18.616	14.158	C.3	1	RES1	0.000	
15	 C32	26.794	17.901	15.230	C.3	1	RES1	0.000	
16	 C33	27.337	18.944	16.204	C.3	1	RES1	0.000	
17	 C34	26.229	19.759	16.806	C.2	1	RES1	0.000	
18	 C35	24.835	19.432	14.776	C.2	1	RES1	0.000	
19	 C36	26.192	17.125	12.150	C.2	1	RES1	0.000	
@<TRIPOS>BOND
1 7 8 ar
2 7 12 ar
3 8 9 ar
4 9 10 ar
5 10 11 ar
6 11 12 ar
7 11 19 ar
8 12 13 ar
9 1 13 2
10 5 13 ar
11 5 14 1
12 14 15 1
13 14 18 1
14 15 16 1
15 16 17 1
16 2 17 2
17 6 17 1
18 3 18 2
19 6 18 1
20 4 19 2
21 5 19 ar
@<TRIPOS>SUBSTRUCTURE
1	RES1	1	GROUP	1 ****	RES
