# created with PyMOL 2.5.2
@<TRIPOS>MOLECULE
BRD4_7BQU_E3ligase
19 21 1                 
SMALL
USER_CHARGES
@<TRIPOS>ATOM
1	  O4	27.399	17.220	11.947	O.2	1	RES1	0.000	
2	  O5	26.342	20.289	17.910	O.2	1	RES1	0.000	
3	  O6	23.737	19.600	14.285	O.2	1	RES1	0.000	
4	  O7	23.084	17.689	13.634	O.2	1	RES1	0.000	
5	  N8	25.413	17.727	13.144	N.2	1	RES1	0.000	
6	  N9	25.081	19.883	16.087	N.pl3	1	RES1	0.000	
7	 C25	25.562	15.519	10.245	C.2	1	RES1	0.000	
8	 C26	24.474	14.834	9.661	C.2	1	RES1	0.000	
9	 C27	23.183	14.950	10.193	C.2	1	RES1	0.000	
10	 C28	22.931	15.768	11.291	C.2	1	RES1	0.000	
11	 C29	24.020	16.420	11.862	C.2	1	RES1	0.000	
12	 C30	25.273	16.317	11.354	C.2	1	RES1	0.000	
13	 C31	26.183	17.117	12.160	C.2	1	RES1	0.000	
14	 C32	25.940	18.640	14.114	C.3	1	RES1	0.000	
15	 C33	26.858	17.975	15.193	C.3	1	RES1	0.000	
16	 C34	27.377	19.009	16.163	C.3	1	RES1	0.000	
17	 C35	26.259	19.758	16.803	C.2	1	RES1	0.000	
18	 C36	24.800	19.380	14.817	C.2	1	RES1	0.000	
19	 C37	24.078	17.357	12.976	C.2	1	RES1	0.000	
@<TRIPOS>BOND
1 7 8 ar
2 7 12 ar
3 8 9 ar
4 9 10 ar
5 10 11 ar
6 11 12 ar
7 11 19 ar
8 12 13 ar
9 1 13 2
10 5 13 ar
11 5 14 1
12 14 15 1
13 14 18 1
14 15 16 1
15 16 17 1
16 2 17 2
17 6 17 1
18 3 18 2
19 6 18 1
20 4 19 2
21 5 19 ar
@<TRIPOS>SUBSTRUCTURE
1	RES1	1	GROUP	1 ****	RES
