# created with PyMOL 2.5.2
@<TRIPOS>MOLECULE
BRD4_7BQU_E3ligase
19 21 1                 
SMALL
USER_CHARGES
@<TRIPOS>ATOM
1	  O3	27.384	17.232	11.935	O.2	1	RES1	0.000	
2	  O4	26.348	20.274	17.907	O.2	1	RES1	0.000	
3	  O5	23.744	19.597	14.284	O.2	1	RES1	0.000	
4	  N6	25.423	17.715	13.126	N.2	1	RES1	0.000	
5	  O6	23.110	17.713	13.652	O.2	1	RES1	0.000	
6	  N7	25.062	19.866	16.097	N.pl3	1	RES1	0.000	
7	 C17	25.544	15.510	10.239	C.2	1	RES1	0.000	
8	 C18	24.471	14.811	9.669	C.2	1	RES1	0.000	
9	 C19	23.174	14.975	10.200	C.2	1	RES1	0.000	
10	 C20	22.947	15.794	11.294	C.2	1	RES1	0.000	
11	 C21	24.017	16.445	11.864	C.2	1	RES1	0.000	
12	 C22	25.300	16.302	11.351	C.2	1	RES1	0.000	
13	 C23	26.183	17.125	12.155	C.2	1	RES1	0.000	
14	 C24	25.961	18.632	14.123	C.3	1	RES1	0.000	
15	 C25	26.853	17.963	15.169	C.3	1	RES1	0.000	
16	 C26	27.347	19.021	16.157	C.3	1	RES1	0.000	
17	 C27	26.222	19.773	16.806	C.2	1	RES1	0.000	
18	 C28	24.813	19.371	14.806	C.2	1	RES1	0.000	
19	 C29	24.090	17.335	13.004	C.2	1	RES1	0.000	
@<TRIPOS>BOND
1 7 8 ar
2 7 12 ar
3 8 9 ar
4 9 10 ar
5 10 11 ar
6 11 12 ar
7 11 19 ar
8 12 13 ar
9 1 13 2
10 4 13 ar
11 4 14 1
12 14 15 1
13 14 18 1
14 15 16 1
15 16 17 1
16 2 17 2
17 6 17 1
18 3 18 2
19 6 18 1
20 4 19 ar
21 5 19 2
@<TRIPOS>SUBSTRUCTURE
1	RES1	1	GROUP	1 ****	RES
