# created with PyMOL 2.5.2
@<TRIPOS>MOLECULE
BRD4_7BQU_E3ligase
19 21 1                 
SMALL
USER_CHARGES
@<TRIPOS>ATOM
1	  O4	27.410	17.211	11.945	O.2	1	RES1	0.000	
2	  O5	26.313	20.307	17.898	O.2	1	RES1	0.000	
3	  O6	23.743	19.588	14.247	O.2	1	RES1	0.000	
4	  O7	23.127	17.709	13.641	O.2	1	RES1	0.000	
5	  N8	25.442	17.703	13.147	N.2	1	RES1	0.000	
6	  N9	25.072	19.871	16.067	N.pl3	1	RES1	0.000	
7	 C23	25.542	15.520	10.221	C.2	1	RES1	0.000	
8	 C24	24.454	14.844	9.668	C.2	1	RES1	0.000	
9	 C25	23.148	14.984	10.184	C.2	1	RES1	0.000	
10	 C26	22.935	15.813	11.295	C.2	1	RES1	0.000	
11	 C27	24.026	16.424	11.868	C.2	1	RES1	0.000	
12	 C28	25.294	16.302	11.344	C.2	1	RES1	0.000	
13	 C29	26.199	17.094	12.150	C.2	1	RES1	0.000	
14	 C30	25.960	18.612	14.154	C.3	1	RES1	0.000	
15	 C31	26.845	17.960	15.214	C.3	1	RES1	0.000	
16	 C32	27.358	19.003	16.176	C.3	1	RES1	0.000	
17	 C33	26.222	19.788	16.794	C.2	1	RES1	0.000	
18	 C34	24.799	19.368	14.818	C.2	1	RES1	0.000	
19	 C35	24.104	17.351	13.010	C.2	1	RES1	0.000	
@<TRIPOS>BOND
1 7 8 ar
2 7 12 ar
3 8 9 ar
4 9 10 ar
5 10 11 ar
6 11 12 ar
7 11 19 ar
8 12 13 ar
9 1 13 2
10 5 13 ar
11 5 14 1
12 14 15 1
13 14 18 1
14 15 16 1
15 16 17 1
16 2 17 2
17 6 17 1
18 3 18 2
19 6 18 1
20 4 19 2
21 5 19 ar
@<TRIPOS>SUBSTRUCTURE
1	RES1	1	GROUP	1 ****	RES
