# created with PyMOL 2.5.2
@<TRIPOS>MOLECULE
EGFR_6H0G_E3ligase
20 22 1                 
SMALL
USER_CHARGES
@<TRIPOS>ATOM
1	  C1	3.385	50.706	-78.381	C.2	1	RES1	0.000	
2	  N1	1.691	51.043	-82.286	N.2	1	RES1	0.000	
3	  O1	3.869	50.751	-77.227	O.2	1	RES1	0.000	
4	  C2	4.009	49.890	-79.503	C.3	1	RES1	0.000	
5	  N2	1.661	54.691	-84.765	N.pl3	1	RES1	0.000	
6	  O2	0.692	49.083	-83.139	O.2	1	RES1	0.000	
7	  C3	3.655	50.465	-80.848	C.3	1	RES1	0.000	
8	  C4	2.134	50.541	-81.009	C.3	1	RES1	0.000	
9	  C5	1.012	50.268	-83.218	C.2	1	RES1	0.000	
10	  C6	0.745	51.110	-84.361	C.2	1	RES1	0.000	
11	  C7	0.100	50.831	-85.556	C.2	1	RES1	0.000	
12	  C8	-0.037	51.867	-86.486	C.2	1	RES1	0.000	
13	  N8	2.222	51.391	-78.669	N.pl3	1	RES1	0.000	
14	  C9	0.505	53.128	-86.224	C.2	1	RES1	0.000	
15	  O9	2.311	53.294	-82.211	O.2	1	RES1	0.000	
16	 C10	1.082	53.431	-84.986	C.2	1	RES1	0.000	
17	 O10	0.497	52.016	-79.975	O.2	1	RES1	0.000	
18	 C48	1.226	52.359	-84.083	C.2	1	RES1	0.000	
19	 C49	1.832	52.339	-82.751	C.2	1	RES1	0.000	
20	 C50	1.535	51.389	-79.888	C.2	1	RES1	0.000	
@<TRIPOS>BOND
1 1 3 2
2 1 4 1
3 1 13 1
4 2 8 1
5 2 9 ar
6 2 19 ar
7 4 7 1
8 6 9 2
9 7 8 1
10 8 20 1
11 9 10 ar
12 10 11 ar
13 11 12 ar
14 12 14 ar
15 5 16 1
16 14 16 ar
17 16 18 ar
18 17 20 2
19 10 18 ar
20 18 19 ar
21 15 19 2
22 13 20 1
@<TRIPOS>SUBSTRUCTURE
1	RES1	1	GROUP	1 ****	RES
