# created with PyMOL 2.5.2
@<TRIPOS>MOLECULE
AR_7BQU_E3ligase
19 21 1                 
SMALL
USER_CHARGES
@<TRIPOS>ATOM
1	  N4	25.429	17.706	13.157	N.2	1	RES1	0.000	
2	  N5	25.071	19.875	16.072	N.pl3	1	RES1	0.000	
3	  O8	27.363	17.218	11.970	O.2	1	RES1	0.000	
4	  O9	26.353	20.300	17.891	O.2	1	RES1	0.000	
5	 O10	23.738	19.621	14.274	O.2	1	RES1	0.000	
6	 O11	23.101	17.682	13.636	O.2	1	RES1	0.000	
7	 C26	25.553	15.495	10.228	C.2	1	RES1	0.000	
8	 C27	24.498	14.835	9.669	C.2	1	RES1	0.000	
9	 C28	23.170	14.985	10.175	C.2	1	RES1	0.000	
10	 C29	22.923	15.788	11.283	C.2	1	RES1	0.000	
11	 C30	24.011	16.439	11.864	C.2	1	RES1	0.000	
12	 C31	25.276	16.308	11.343	C.2	1	RES1	0.000	
13	 C32	26.195	17.095	12.160	C.2	1	RES1	0.000	
14	 C33	25.945	18.626	14.137	C.3	1	RES1	0.000	
15	 C34	26.847	17.964	15.185	C.3	1	RES1	0.000	
16	 C35	27.371	19.006	16.167	C.3	1	RES1	0.000	
17	 C36	26.234	19.777	16.808	C.2	1	RES1	0.000	
18	 C37	24.808	19.380	14.810	C.2	1	RES1	0.000	
19	 C38	24.105	17.352	13.010	C.2	1	RES1	0.000	
@<TRIPOS>BOND
1 5 18 2
2 6 19 2
3 7 8 ar
4 7 12 ar
5 8 9 ar
6 9 10 ar
7 10 11 ar
8 11 12 ar
9 11 19 ar
10 12 13 ar
11 1 13 ar
12 3 13 2
13 1 14 1
14 14 15 1
15 14 18 1
16 15 16 1
17 16 17 1
18 2 17 1
19 4 17 2
20 2 18 1
21 1 19 ar
@<TRIPOS>SUBSTRUCTURE
1	RES1	1	GROUP	1 ****	RES
