# created with PyMOL 2.5.2
@<TRIPOS>MOLECULE
TRKA_7BQU_E3ligase
19 21 1                 
SMALL
USER_CHARGES
@<TRIPOS>ATOM
1	  O2	23.130	17.648	13.674	O.2	1	RES1	0.000	
2	  O3	26.327	20.330	17.897	O.2	1	RES1	0.000	
3	  O4	23.789	19.672	14.213	O.2	1	RES1	0.000	
4	  O5	27.404	17.230	11.931	O.2	1	RES1	0.000	
5	 N10	25.435	17.663	13.167	N.2	1	RES1	0.000	
6	 N11	25.093	19.928	16.031	N.pl3	1	RES1	0.000	
7	 C30	24.443	14.852	9.632	C.2	1	RES1	0.000	
8	 C31	23.156	14.999	10.166	C.2	1	RES1	0.000	
9	 C32	22.925	15.778	11.309	C.2	1	RES1	0.000	
10	 C33	24.034	16.420	11.851	C.2	1	RES1	0.000	
11	 C34	24.100	17.318	13.018	C.2	1	RES1	0.000	
12	 C35	25.955	18.583	14.172	C.3	1	RES1	0.000	
13	 C36	26.786	17.916	15.255	C.3	1	RES1	0.000	
14	 C37	27.346	18.963	16.228	C.3	1	RES1	0.000	
15	 C38	26.215	19.779	16.800	C.2	1	RES1	0.000	
16	 C39	24.833	19.416	14.770	C.2	1	RES1	0.000	
17	 C40	26.201	17.119	12.162	C.2	1	RES1	0.000	
18	 C41	25.281	16.313	11.345	C.2	1	RES1	0.000	
19	 C42	25.539	15.527	10.220	C.2	1	RES1	0.000	
@<TRIPOS>BOND
1 1 11 2
2 2 15 2
3 5 11 ar
4 5 12 1
5 5 17 ar
6 6 15 1
7 6 16 1
8 7 8 ar
9 7 19 ar
10 8 9 ar
11 9 10 ar
12 10 11 ar
13 10 18 ar
14 12 13 1
15 12 16 1
16 13 14 1
17 14 15 1
18 3 16 2
19 4 17 2
20 17 18 ar
21 18 19 ar
@<TRIPOS>SUBSTRUCTURE
1	RES1	1	GROUP	1 ****	RES
