# created with PyMOL 2.5.2
@<TRIPOS>MOLECULE
TRKA_7BQU_E3ligase
19 21 1                 
SMALL
USER_CHARGES
@<TRIPOS>ATOM
1	  C1	26.592	19.918	16.569	C.2	1	RES1	0.000	
2	  N1	24.938	17.399	13.500	N.2	1	RES1	0.000	
3	  O1	27.144	20.697	17.347	O.2	1	RES1	0.000	
4	  C2	26.424	18.461	16.876	C.3	1	RES1	0.000	
5	  O2	26.867	17.933	12.286	O.2	1	RES1	0.000	
6	  C3	26.303	17.615	15.592	C.3	1	RES1	0.000	
7	  O3	22.774	16.508	13.944	O.2	1	RES1	0.000	
8	  C4	25.145	18.154	14.776	C.3	1	RES1	0.000	
9	  O4	24.830	20.186	13.484	O.2	1	RES1	0.000	
10	  C5	25.804	17.387	12.422	C.2	1	RES1	0.000	
11	  C6	25.153	16.560	11.415	C.2	1	RES1	0.000	
12	  C7	25.599	16.189	10.149	C.2	1	RES1	0.000	
13	  C8	24.754	15.377	9.386	C.2	1	RES1	0.000	
14	  C9	23.518	14.959	9.891	C.2	1	RES1	0.000	
15	 N10	26.022	20.356	15.411	N.pl3	1	RES1	0.000	
16	 C37	23.088	15.321	11.151	C.2	1	RES1	0.000	
17	 C38	23.944	16.123	11.926	C.2	1	RES1	0.000	
18	 C39	23.776	16.668	13.256	C.2	1	RES1	0.000	
19	 C40	25.319	19.643	14.458	C.2	1	RES1	0.000	
@<TRIPOS>BOND
1 1 3 2
2 1 4 1
3 1 15 1
4 2 8 1
5 2 10 ar
6 2 18 ar
7 4 6 1
8 5 10 2
9 6 8 1
10 7 18 2
11 8 19 1
12 9 19 2
13 10 11 ar
14 11 12 ar
15 12 13 ar
16 13 14 ar
17 15 19 1
18 14 16 ar
19 16 17 ar
20 11 17 ar
21 17 18 ar
@<TRIPOS>SUBSTRUCTURE
1	RES1	1	GROUP	1 ****	RES
