# created with PyMOL 2.5.2
@<TRIPOS>MOLECULE
TRKA_6H0G_E3ligase
20 22 1                 
SMALL
USER_CHARGES
@<TRIPOS>ATOM
1	  O3	2.816	53.764	-82.853	O.2	1	RES1	0.000	
2	  O4	3.680	49.687	-77.414	O.2	1	RES1	0.000	
3	  O5	0.199	50.432	-80.193	O.2	1	RES1	0.000	
4	  O6	0.441	49.822	-82.251	O.2	1	RES1	0.000	
5	  N9	1.979	54.432	-85.619	N.pl3	1	RES1	0.000	
6	 N10	1.729	51.792	-82.103	N.2	1	RES1	0.000	
7	 N11	1.984	50.060	-78.865	N.pl3	1	RES1	0.000	
8	 C32	1.340	53.200	-85.447	C.2	1	RES1	0.000	
9	 C33	0.520	52.665	-86.446	C.2	1	RES1	0.000	
10	 C34	-0.174	51.472	-86.281	C.2	1	RES1	0.000	
11	 C35	-0.129	50.772	-85.072	C.2	1	RES1	0.000	
12	 C36	0.645	51.343	-84.074	C.2	1	RES1	0.000	
13	 C37	1.364	52.524	-84.230	C.2	1	RES1	0.000	
14	 C38	2.071	52.797	-82.998	C.2	1	RES1	0.000	
15	 C39	2.237	51.653	-80.737	C.3	1	RES1	0.000	
16	 C40	3.705	51.249	-80.674	C.3	1	RES1	0.000	
17	 C41	4.145	51.195	-79.222	C.3	1	RES1	0.000	
18	 C42	3.290	50.227	-78.413	C.2	1	RES1	0.000	
19	 C43	1.382	50.649	-79.953	C.2	1	RES1	0.000	
20	 C44	0.901	50.859	-82.721	C.2	1	RES1	0.000	
@<TRIPOS>BOND
1 1 14 2
2 2 18 2
3 6 14 ar
4 6 15 1
5 6 20 ar
6 7 18 1
7 7 19 1
8 5 8 1
9 8 9 ar
10 8 13 ar
11 9 10 ar
12 10 11 ar
13 11 12 ar
14 12 13 ar
15 12 20 ar
16 13 14 ar
17 15 16 1
18 15 19 1
19 16 17 1
20 17 18 1
21 3 19 2
22 4 20 2
@<TRIPOS>SUBSTRUCTURE
1	RES1	1	GROUP	1 ****	RES
