# created with PyMOL 2.5.2
@<TRIPOS>MOLECULE
TRKA_7BQU_E3ligase
19 21 1                 
SMALL
USER_CHARGES
@<TRIPOS>ATOM
1	  O3	23.125	17.675	13.653	O.2	1	RES1	0.000	
2	  O4	26.322	20.321	17.907	O.2	1	RES1	0.000	
3	  O5	23.757	19.623	14.229	O.2	1	RES1	0.000	
4	  O6	27.406	17.214	11.945	O.2	1	RES1	0.000	
5	 N10	25.435	17.692	13.149	N.2	1	RES1	0.000	
6	 N11	25.074	19.909	16.046	N.pl3	1	RES1	0.000	
7	 C32	24.450	14.859	9.633	C.2	1	RES1	0.000	
8	 C33	23.165	14.990	10.170	C.2	1	RES1	0.000	
9	 C34	22.927	15.791	11.307	C.2	1	RES1	0.000	
10	 C35	24.016	16.432	11.853	C.2	1	RES1	0.000	
11	 C36	24.085	17.332	13.024	C.2	1	RES1	0.000	
12	 C37	25.957	18.614	14.158	C.3	1	RES1	0.000	
13	 C38	26.826	17.943	15.245	C.3	1	RES1	0.000	
14	 C39	27.371	18.983	16.185	C.3	1	RES1	0.000	
15	 C40	26.232	19.770	16.805	C.2	1	RES1	0.000	
16	 C41	24.814	19.399	14.810	C.2	1	RES1	0.000	
17	 C42	26.195	17.117	12.148	C.2	1	RES1	0.000	
18	 C43	25.268	16.286	11.337	C.2	1	RES1	0.000	
19	 C44	25.570	15.503	10.234	C.2	1	RES1	0.000	
@<TRIPOS>BOND
1 1 11 2
2 2 15 2
3 5 11 ar
4 5 12 1
5 5 17 ar
6 6 15 1
7 6 16 1
8 7 8 ar
9 7 19 ar
10 8 9 ar
11 9 10 ar
12 10 11 ar
13 10 18 ar
14 12 13 1
15 12 16 1
16 13 14 1
17 14 15 1
18 3 16 2
19 4 17 2
20 17 18 ar
21 18 19 ar
@<TRIPOS>SUBSTRUCTURE
1	RES1	1	GROUP	1 ****	RES
