# created with PyMOL 2.5.2
@<TRIPOS>MOLECULE
TRKA_7BQU_E3ligase
19 21 1                 
SMALL
USER_CHARGES
@<TRIPOS>ATOM
1	  C1	26.591	19.906	16.579	C.2	1	RES1	0.000	
2	  N1	24.946	17.412	13.511	N.2	1	RES1	0.000	
3	  O1	27.150	20.675	17.350	O.2	1	RES1	0.000	
4	  C2	26.411	18.460	16.871	C.3	1	RES1	0.000	
5	  O2	26.866	17.957	12.278	O.2	1	RES1	0.000	
6	  C3	26.286	17.609	15.586	C.3	1	RES1	0.000	
7	  C4	25.134	18.157	14.775	C.3	1	RES1	0.000	
8	  O4	22.800	16.492	13.947	O.2	1	RES1	0.000	
9	  C5	25.800	17.380	12.429	C.2	1	RES1	0.000	
10	  O5	24.839	20.199	13.467	O.2	1	RES1	0.000	
11	  C6	25.148	16.548	11.418	C.2	1	RES1	0.000	
12	  C7	25.593	16.197	10.152	C.2	1	RES1	0.000	
13	  C8	24.743	15.380	9.385	C.2	1	RES1	0.000	
14	  C9	23.528	14.926	9.880	C.2	1	RES1	0.000	
15	 N10	26.029	20.374	15.408	N.pl3	1	RES1	0.000	
16	 C40	23.086	15.323	11.183	C.2	1	RES1	0.000	
17	 C41	23.953	16.133	11.909	C.2	1	RES1	0.000	
18	 C42	23.769	16.679	13.247	C.2	1	RES1	0.000	
19	 C43	25.322	19.646	14.463	C.2	1	RES1	0.000	
@<TRIPOS>BOND
1 1 3 2
2 1 4 1
3 1 15 1
4 2 7 1
5 2 9 ar
6 2 18 ar
7 4 6 1
8 5 9 2
9 6 7 1
10 7 19 1
11 8 18 2
12 9 11 ar
13 11 12 ar
14 12 13 ar
15 13 14 ar
16 15 19 1
17 14 16 ar
18 16 17 ar
19 11 17 ar
20 17 18 ar
21 10 19 2
@<TRIPOS>SUBSTRUCTURE
1	RES1	1	GROUP	1 ****	RES
