# created with PyMOL 2.5.2
@<TRIPOS>MOLECULE
TRKA_7BQU_E3ligase
19 21 1                 
SMALL
USER_CHARGES
@<TRIPOS>ATOM
1	  C1	26.583	19.921	16.578	C.2	1	RES1	0.000	
2	  N1	24.918	17.422	13.486	N.2	1	RES1	0.000	
3	  O1	27.158	20.660	17.353	O.2	1	RES1	0.000	
4	  C2	26.406	18.445	16.875	C.3	1	RES1	0.000	
5	  O2	26.871	17.959	12.284	O.2	1	RES1	0.000	
6	  C3	26.289	17.617	15.596	C.3	1	RES1	0.000	
7	  C4	25.146	18.165	14.767	C.3	1	RES1	0.000	
8	  O4	22.787	16.484	13.957	O.2	1	RES1	0.000	
9	  C5	25.772	17.406	12.450	C.2	1	RES1	0.000	
10	  O5	24.851	20.187	13.471	O.2	1	RES1	0.000	
11	  C6	25.135	16.548	11.426	C.2	1	RES1	0.000	
12	  C7	25.584	16.213	10.153	C.2	1	RES1	0.000	
13	  C8	24.765	15.372	9.376	C.2	1	RES1	0.000	
14	  C9	23.523	14.935	9.878	C.2	1	RES1	0.000	
15	 N10	26.042	20.365	15.393	N.pl3	1	RES1	0.000	
16	 C39	23.100	15.304	11.176	C.2	1	RES1	0.000	
17	 C40	23.953	16.128	11.921	C.2	1	RES1	0.000	
18	 C41	23.790	16.679	13.256	C.2	1	RES1	0.000	
19	 C42	25.320	19.646	14.443	C.2	1	RES1	0.000	
@<TRIPOS>BOND
1 1 3 2
2 1 4 1
3 1 15 1
4 2 7 1
5 2 9 ar
6 2 18 ar
7 4 6 1
8 5 9 2
9 6 7 1
10 7 19 1
11 8 18 2
12 9 11 ar
13 11 12 ar
14 12 13 ar
15 13 14 ar
16 15 19 1
17 14 16 ar
18 16 17 ar
19 11 17 ar
20 17 18 ar
21 10 19 2
@<TRIPOS>SUBSTRUCTURE
1	RES1	1	GROUP	1 ****	RES
