# created with PyMOL 2.5.2
@<TRIPOS>MOLECULE
38_6H0G_E3ligase
20 22 1                 
SMALL
USER_CHARGES
@<TRIPOS>ATOM
1	  N2	1.974	54.437	-85.601	N.pl3	1	RES1	0.000	
2	  O2	2.819	53.732	-82.840	O.2	1	RES1	0.000	
3	  N3	1.742	51.744	-82.119	N.2	1	RES1	0.000	
4	  O3	3.662	49.723	-77.375	O.2	1	RES1	0.000	
5	  N4	1.985	50.099	-78.865	N.pl3	1	RES1	0.000	
6	  O4	0.211	50.446	-80.210	O.2	1	RES1	0.000	
7	  O5	0.414	49.818	-82.270	O.2	1	RES1	0.000	
8	 C11	1.345	53.205	-85.450	C.2	1	RES1	0.000	
9	 C12	0.509	52.697	-86.451	C.2	1	RES1	0.000	
10	 C13	-0.209	51.503	-86.289	C.2	1	RES1	0.000	
11	 C14	-0.139	50.799	-85.082	C.2	1	RES1	0.000	
12	 C15	0.655	51.333	-84.073	C.2	1	RES1	0.000	
13	 C16	1.368	52.496	-84.240	C.2	1	RES1	0.000	
14	 C17	2.069	52.766	-82.991	C.2	1	RES1	0.000	
15	 C18	2.261	51.614	-80.748	C.3	1	RES1	0.000	
16	 C19	3.728	51.249	-80.674	C.3	1	RES1	0.000	
17	 C20	4.160	51.185	-79.209	C.3	1	RES1	0.000	
18	 C21	3.270	50.240	-78.408	C.2	1	RES1	0.000	
19	 C22	1.398	50.667	-79.957	C.2	1	RES1	0.000	
20	 C23	0.904	50.842	-82.711	C.2	1	RES1	0.000	
@<TRIPOS>BOND
1 1 8 1
2 8 9 ar
3 8 13 ar
4 9 10 ar
5 10 11 ar
6 11 12 ar
7 12 13 ar
8 12 20 ar
9 13 14 ar
10 2 14 2
11 3 14 ar
12 3 15 1
13 15 16 1
14 15 19 1
15 16 17 1
16 17 18 1
17 4 18 2
18 5 18 1
19 5 19 1
20 6 19 2
21 3 20 ar
22 7 20 2
@<TRIPOS>SUBSTRUCTURE
1	RES1	1	GROUP	1 ****	RES
