# created with PyMOL 2.5.2
@<TRIPOS>MOLECULE
BRD2_7BQU_E3ligase
19 21 1                 
SMALL
USER_CHARGES
@<TRIPOS>ATOM
1	  O2	27.393	17.218	11.951	O.2	1	RES1	0.000	
2	  O3	26.372	20.287	17.896	O.2	1	RES1	0.000	
3	  O4	23.704	19.612	14.295	O.2	1	RES1	0.000	
4	  O5	23.112	17.719	13.630	O.2	1	RES1	0.000	
5	  N6	25.407	17.701	13.141	N.2	1	RES1	0.000	
6	  N7	25.080	19.882	16.092	N.pl3	1	RES1	0.000	
7	 C17	25.565	15.513	10.250	C.2	1	RES1	0.000	
8	 C18	24.487	14.822	9.670	C.2	1	RES1	0.000	
9	 C19	23.177	14.965	10.185	C.2	1	RES1	0.000	
10	 C20	22.925	15.766	11.292	C.2	1	RES1	0.000	
11	 C21	24.021	16.452	11.858	C.2	1	RES1	0.000	
12	 C22	25.292	16.301	11.351	C.2	1	RES1	0.000	
13	 C23	26.193	17.111	12.162	C.2	1	RES1	0.000	
14	 C24	25.944	18.638	14.136	C.3	1	RES1	0.000	
15	 C25	26.852	17.960	15.181	C.3	1	RES1	0.000	
16	 C26	27.366	19.010	16.133	C.3	1	RES1	0.000	
17	 C27	26.239	19.762	16.808	C.2	1	RES1	0.000	
18	 C28	24.784	19.381	14.820	C.2	1	RES1	0.000	
19	 C29	24.080	17.354	12.989	C.2	1	RES1	0.000	
@<TRIPOS>BOND
1 1 13 2
2 7 8 ar
3 7 12 ar
4 8 9 ar
5 9 10 ar
6 10 11 ar
7 11 12 ar
8 11 19 ar
9 12 13 ar
10 5 13 ar
11 5 14 1
12 14 15 1
13 14 18 1
14 15 16 1
15 16 17 1
16 2 17 2
17 6 17 1
18 3 18 2
19 6 18 1
20 4 19 2
21 5 19 ar
@<TRIPOS>SUBSTRUCTURE
1	RES1	1	GROUP	1 ****	RES
