# created with PyMOL 2.5.2
@<TRIPOS>MOLECULE
38_7BQU_E3ligase
19 21 1                 
SMALL
USER_CHARGES
@<TRIPOS>ATOM
1	  N3	25.426	17.666	13.179	N.2	1	RES1	0.000	
2	  O3	23.108	17.638	13.675	O.2	1	RES1	0.000	
3	  N4	25.102	19.948	16.035	N.pl3	1	RES1	0.000	
4	  O4	26.331	20.338	17.885	O.2	1	RES1	0.000	
5	  O5	23.801	19.678	14.200	O.2	1	RES1	0.000	
6	  O6	27.372	17.216	11.946	O.2	1	RES1	0.000	
7	 C12	24.456	14.870	9.632	C.2	1	RES1	0.000	
8	 C13	23.168	14.967	10.152	C.2	1	RES1	0.000	
9	 C14	22.929	15.786	11.291	C.2	1	RES1	0.000	
10	 C15	24.021	16.423	11.880	C.2	1	RES1	0.000	
11	 C16	24.106	17.298	13.017	C.2	1	RES1	0.000	
12	 C17	25.950	18.601	14.166	C.3	1	RES1	0.000	
13	 C18	26.787	17.910	15.245	C.3	1	RES1	0.000	
14	 C19	27.351	18.950	16.214	C.3	1	RES1	0.000	
15	 C20	26.241	19.778	16.820	C.2	1	RES1	0.000	
16	 C21	24.829	19.426	14.795	C.2	1	RES1	0.000	
17	 C22	26.170	17.107	12.144	C.2	1	RES1	0.000	
18	 C23	25.295	16.325	11.335	C.2	1	RES1	0.000	
19	 C24	25.552	15.528	10.227	C.2	1	RES1	0.000	
@<TRIPOS>BOND
1 7 8 ar
2 7 19 ar
3 8 9 ar
4 9 10 ar
5 10 11 ar
6 10 18 ar
7 1 11 ar
8 2 11 2
9 1 12 1
10 12 13 1
11 12 16 1
12 13 14 1
13 14 15 1
14 3 15 1
15 4 15 2
16 3 16 1
17 5 16 2
18 1 17 ar
19 6 17 2
20 17 18 ar
21 18 19 ar
@<TRIPOS>SUBSTRUCTURE
1	RES1	1	GROUP	1 ****	RES
