# created with PyMOL 2.5.2
@<TRIPOS>MOLECULE
38_6H0G_E3ligase
20 22 1                 
SMALL
USER_CHARGES
@<TRIPOS>ATOM
1	  N2	2.006	54.429	-85.594	N.pl3	1	RES1	0.000	
2	  N3	1.737	51.761	-82.119	N.2	1	RES1	0.000	
3	  N4	1.994	50.074	-78.888	N.pl3	1	RES1	0.000	
4	  O4	2.821	53.720	-82.831	O.2	1	RES1	0.000	
5	  O5	3.691	49.708	-77.399	O.2	1	RES1	0.000	
6	  O6	0.223	50.420	-80.232	O.2	1	RES1	0.000	
7	  O7	0.411	49.821	-82.251	O.2	1	RES1	0.000	
8	 C13	1.336	53.212	-85.452	C.2	1	RES1	0.000	
9	 C14	0.519	52.692	-86.462	C.2	1	RES1	0.000	
10	 C15	-0.188	51.485	-86.272	C.2	1	RES1	0.000	
11	 C16	-0.134	50.796	-85.078	C.2	1	RES1	0.000	
12	 C17	0.662	51.328	-84.078	C.2	1	RES1	0.000	
13	 C18	1.345	52.516	-84.241	C.2	1	RES1	0.000	
14	 C19	2.045	52.775	-82.991	C.2	1	RES1	0.000	
15	 C20	2.243	51.625	-80.749	C.3	1	RES1	0.000	
16	 C21	3.734	51.265	-80.657	C.3	1	RES1	0.000	
17	 C22	4.143	51.207	-79.197	C.3	1	RES1	0.000	
18	 C23	3.276	50.261	-78.398	C.2	1	RES1	0.000	
19	 C24	1.391	50.652	-79.965	C.2	1	RES1	0.000	
20	 C25	0.870	50.844	-82.713	C.2	1	RES1	0.000	
@<TRIPOS>BOND
1 1 8 1
2 8 9 ar
3 8 13 ar
4 9 10 ar
5 10 11 ar
6 11 12 ar
7 12 13 ar
8 12 20 ar
9 13 14 ar
10 2 14 ar
11 4 14 2
12 2 15 1
13 15 16 1
14 15 19 1
15 16 17 1
16 17 18 1
17 3 18 1
18 5 18 2
19 3 19 1
20 6 19 2
21 2 20 ar
22 7 20 2
@<TRIPOS>SUBSTRUCTURE
1	RES1	1	GROUP	1 ****	RES
