# created with PyMOL 2.5.2
@<TRIPOS>MOLECULE
38_7BQU_E3ligase
19 21 1                 
SMALL
USER_CHARGES
@<TRIPOS>ATOM
1	  N3	25.439	17.668	13.158	N.2	1	RES1	0.000	
2	  N4	25.091	19.917	16.038	N.pl3	1	RES1	0.000	
3	  O5	23.132	17.641	13.697	O.2	1	RES1	0.000	
4	  O6	26.314	20.329	17.888	O.2	1	RES1	0.000	
5	  O7	23.796	19.643	14.207	O.2	1	RES1	0.000	
6	  O8	27.401	17.218	11.940	O.2	1	RES1	0.000	
7	 C14	24.459	14.868	9.647	C.2	1	RES1	0.000	
8	 C15	23.161	14.996	10.167	C.2	1	RES1	0.000	
9	 C16	22.919	15.784	11.296	C.2	1	RES1	0.000	
10	 C17	24.032	16.451	11.862	C.2	1	RES1	0.000	
11	 C18	24.084	17.324	13.028	C.2	1	RES1	0.000	
12	 C19	25.958	18.582	14.160	C.3	1	RES1	0.000	
13	 C20	26.805	17.920	15.245	C.3	1	RES1	0.000	
14	 C21	27.339	18.992	16.195	C.3	1	RES1	0.000	
15	 C22	26.210	19.773	16.814	C.2	1	RES1	0.000	
16	 C23	24.838	19.411	14.785	C.2	1	RES1	0.000	
17	 C24	26.200	17.083	12.158	C.2	1	RES1	0.000	
18	 C25	25.275	16.328	11.347	C.2	1	RES1	0.000	
19	 C26	25.542	15.524	10.209	C.2	1	RES1	0.000	
@<TRIPOS>BOND
1 7 8 ar
2 7 19 ar
3 8 9 ar
4 9 10 ar
5 10 11 ar
6 10 18 ar
7 1 11 ar
8 3 11 2
9 1 12 1
10 12 13 1
11 12 16 1
12 13 14 1
13 14 15 1
14 2 15 1
15 4 15 2
16 2 16 1
17 5 16 2
18 1 17 ar
19 6 17 2
20 17 18 ar
21 18 19 ar
@<TRIPOS>SUBSTRUCTURE
1	RES1	1	GROUP	1 ****	RES
