# created with PyMOL 2.5.2
@<TRIPOS>MOLECULE
38_6H0G_E3ligase
20 22 1                 
SMALL
USER_CHARGES
@<TRIPOS>ATOM
1	  N2	2.136	54.362	-85.602	N.pl3	1	RES1	0.000	
2	  N3	1.742	51.701	-82.131	N.2	1	RES1	0.000	
3	  N4	2.041	50.050	-78.884	N.pl3	1	RES1	0.000	
4	  O8	2.774	53.728	-82.802	O.2	1	RES1	0.000	
5	  O9	3.725	49.776	-77.372	O.2	1	RES1	0.000	
6	 O10	0.247	50.295	-80.234	O.2	1	RES1	0.000	
7	 O11	0.314	49.841	-82.280	O.2	1	RES1	0.000	
8	 C21	1.293	53.213	-85.424	C.2	1	RES1	0.000	
9	 C22	0.567	52.699	-86.466	C.2	1	RES1	0.000	
10	 C23	-0.193	51.527	-86.308	C.2	1	RES1	0.000	
11	 C24	-0.154	50.825	-85.093	C.2	1	RES1	0.000	
12	 C25	0.625	51.333	-84.070	C.2	1	RES1	0.000	
13	 C26	1.340	52.506	-84.230	C.2	1	RES1	0.000	
14	 C27	2.055	52.741	-82.996	C.2	1	RES1	0.000	
15	 C28	2.222	51.625	-80.756	C.3	1	RES1	0.000	
16	 C29	3.708	51.340	-80.635	C.3	1	RES1	0.000	
17	 C30	4.123	51.306	-79.165	C.3	1	RES1	0.000	
18	 C31	3.304	50.294	-78.397	C.2	1	RES1	0.000	
19	 C32	1.420	50.599	-79.988	C.2	1	RES1	0.000	
20	 C33	0.836	50.831	-82.734	C.2	1	RES1	0.000	
@<TRIPOS>BOND
1 1 8 1
2 2 20 ar
3 6 19 2
4 7 20 2
5 8 9 ar
6 8 13 ar
7 9 10 ar
8 10 11 ar
9 11 12 ar
10 12 13 ar
11 12 20 ar
12 13 14 ar
13 2 14 ar
14 4 14 2
15 2 15 1
16 15 16 1
17 15 19 1
18 16 17 1
19 17 18 1
20 3 18 1
21 5 18 2
22 3 19 1
@<TRIPOS>SUBSTRUCTURE
1	RES1	1	GROUP	1 ****	RES
