# created with PyMOL 2.5.2
@<TRIPOS>MOLECULE
38_6H0G_E3ligase
20 22 1                 
SMALL
USER_CHARGES
@<TRIPOS>ATOM
1	  N3	1.986	54.437	-85.628	N.pl3	1	RES1	0.000	
2	  N4	1.734	51.812	-82.088	N.2	1	RES1	0.000	
3	  N5	1.996	50.058	-78.896	N.pl3	1	RES1	0.000	
4	  O5	2.808	53.784	-82.840	O.2	1	RES1	0.000	
5	  O6	3.688	49.646	-77.436	O.3	1	RES1	0.000	
6	  O7	0.232	50.404	-80.238	O.2	1	RES1	0.000	
7	  O8	0.429	49.855	-82.235	O.2	1	RES1	0.000	
8	 C21	1.315	53.177	-85.446	C.2	1	RES1	0.000	
9	 C22	0.525	52.659	-86.467	C.2	1	RES1	0.000	
10	 C23	-0.150	51.468	-86.280	C.2	1	RES1	0.000	
11	 C24	-0.129	50.764	-85.059	C.2	1	RES1	0.000	
12	 C25	0.660	51.338	-84.054	C.2	1	RES1	0.000	
13	 C26	1.354	52.508	-84.241	C.2	1	RES1	0.000	
14	 C27	2.050	52.804	-82.980	C.2	1	RES1	0.000	
15	 C28	2.226	51.669	-80.719	C.3	1	RES1	0.000	
16	 C29	3.706	51.283	-80.657	C.3	1	RES1	0.000	
17	 C30	4.126	51.210	-79.184	C.3	1	RES1	0.000	
18	 C31	3.287	50.199	-78.454	C.3	1	RES1	0.000	
19	 C32	1.378	50.640	-79.984	C.2	1	RES1	0.000	
20	 C33	0.905	50.878	-82.680	C.2	1	RES1	0.000	
@<TRIPOS>BOND
1 1 8 1
2 8 9 ar
3 8 13 ar
4 9 10 ar
5 10 11 ar
6 11 12 ar
7 12 13 ar
8 12 20 ar
9 13 14 ar
10 2 14 ar
11 4 14 2
12 2 15 1
13 15 16 1
14 15 19 1
15 16 17 1
16 17 18 1
17 3 18 1
18 5 18 1
19 3 19 1
20 6 19 2
21 2 20 ar
22 7 20 2
@<TRIPOS>SUBSTRUCTURE
1	RES1	1	GROUP	1 ****	RES
