# created with PyMOL 2.5.2
@<TRIPOS>MOLECULE
38_6H0G_E3ligase
20 22 1                 
SMALL
USER_CHARGES
@<TRIPOS>ATOM
1	  N3	1.970	54.433	-85.604	N.pl3	1	RES1	0.000	
2	  N4	1.735	51.771	-82.121	N.2	1	RES1	0.000	
3	  N5	1.983	50.077	-78.850	N.pl3	1	RES1	0.000	
4	  O6	2.839	53.747	-82.846	O.2	1	RES1	0.000	
5	  O7	3.674	49.696	-77.388	O.2	1	RES1	0.000	
6	  O8	0.201	50.433	-80.216	O.2	1	RES1	0.000	
7	  O9	0.418	49.815	-82.260	O.2	1	RES1	0.000	
8	 C23	1.337	53.191	-85.452	C.2	1	RES1	0.000	
9	 C24	0.507	52.667	-86.454	C.2	1	RES1	0.000	
10	 C25	-0.200	51.480	-86.278	C.2	1	RES1	0.000	
11	 C26	-0.136	50.801	-85.062	C.2	1	RES1	0.000	
12	 C27	0.664	51.359	-84.069	C.2	1	RES1	0.000	
13	 C28	1.359	52.499	-84.246	C.2	1	RES1	0.000	
14	 C29	2.080	52.801	-83.019	C.2	1	RES1	0.000	
15	 C30	2.252	51.637	-80.743	C.3	1	RES1	0.000	
16	 C31	3.727	51.247	-80.655	C.3	1	RES1	0.000	
17	 C32	4.163	51.189	-79.197	C.3	1	RES1	0.000	
18	 C33	3.269	50.246	-78.411	C.2	1	RES1	0.000	
19	 C34	1.389	50.640	-79.969	C.2	1	RES1	0.000	
20	 C35	0.894	50.864	-82.723	C.2	1	RES1	0.000	
@<TRIPOS>BOND
1 1 8 1
2 8 9 ar
3 8 13 ar
4 9 10 ar
5 10 11 ar
6 11 12 ar
7 12 13 ar
8 12 20 ar
9 13 14 ar
10 2 14 ar
11 4 14 2
12 2 15 1
13 15 16 1
14 15 19 1
15 16 17 1
16 17 18 1
17 3 18 1
18 5 18 2
19 3 19 1
20 6 19 2
21 2 20 ar
22 7 20 2
@<TRIPOS>SUBSTRUCTURE
1	RES1	1	GROUP	1 ****	RES
