# created with PyMOL 2.5.2
@<TRIPOS>MOLECULE
38_6H0G_E3ligase
20 22 1                 
SMALL
USER_CHARGES
@<TRIPOS>ATOM
1	  N4	1.995	54.446	-85.604	N.pl3	1	RES1	0.000	
2	  N5	1.711	51.779	-82.101	N.2	1	RES1	0.000	
3	  O5	2.791	53.751	-82.836	O.2	1	RES1	0.000	
4	  N6	2.003	50.092	-78.846	N.pl3	1	RES1	0.000	
5	  O6	3.700	49.697	-77.424	O.2	1	RES1	0.000	
6	  O7	0.213	50.421	-80.173	O.2	1	RES1	0.000	
7	  O8	0.421	49.822	-82.257	O.2	1	RES1	0.000	
8	 C23	1.338	53.197	-85.438	C.2	1	RES1	0.000	
9	 C24	0.528	52.683	-86.466	C.2	1	RES1	0.000	
10	 C25	-0.174	51.477	-86.305	C.2	1	RES1	0.000	
11	 C26	-0.088	50.772	-85.088	C.2	1	RES1	0.000	
12	 C27	0.647	51.350	-84.089	C.2	1	RES1	0.000	
13	 C28	1.353	52.493	-84.222	C.2	1	RES1	0.000	
14	 C29	2.046	52.804	-82.991	C.2	1	RES1	0.000	
15	 C30	2.215	51.638	-80.749	C.3	1	RES1	0.000	
16	 C31	3.710	51.246	-80.667	C.3	1	RES1	0.000	
17	 C32	4.154	51.196	-79.228	C.3	1	RES1	0.000	
18	 C33	3.290	50.235	-78.419	C.2	1	RES1	0.000	
19	 C34	1.386	50.648	-79.954	C.2	1	RES1	0.000	
20	 C35	0.888	50.845	-82.711	C.2	1	RES1	0.000	
@<TRIPOS>BOND
1 1 8 1
2 8 9 ar
3 8 13 ar
4 9 10 ar
5 10 11 ar
6 11 12 ar
7 12 13 ar
8 12 20 ar
9 13 14 ar
10 2 14 ar
11 3 14 2
12 2 15 1
13 15 16 1
14 15 19 1
15 16 17 1
16 17 18 1
17 4 18 1
18 5 18 2
19 4 19 1
20 6 19 2
21 2 20 ar
22 7 20 2
@<TRIPOS>SUBSTRUCTURE
1	RES1	1	GROUP	1 ****	RES
