# created with PyMOL 2.5.2
@<TRIPOS>MOLECULE
38_7BQU_E3ligase
19 21 1                 
SMALL
USER_CHARGES
@<TRIPOS>ATOM
1	  N5	25.388	17.700	13.156	N.2	1	RES1	0.000	
2	  N6	25.087	19.902	16.065	N.pl3	1	RES1	0.000	
3	  O6	23.096	17.690	13.626	O.2	1	RES1	0.000	
4	  O7	26.385	20.277	17.896	O.2	1	RES1	0.000	
5	  O8	23.736	19.665	14.266	O.2	1	RES1	0.000	
6	  O9	27.382	17.255	11.943	O.2	1	RES1	0.000	
7	 C24	24.474	14.830	9.659	C.2	1	RES1	0.000	
8	 C25	23.178	14.956	10.206	C.2	1	RES1	0.000	
9	 C26	22.940	15.771	11.306	C.2	1	RES1	0.000	
10	 C27	24.038	16.421	11.847	C.2	1	RES1	0.000	
11	 C28	24.083	17.311	12.997	C.2	1	RES1	0.000	
12	 C29	25.937	18.636	14.130	C.3	1	RES1	0.000	
13	 C30	26.799	17.963	15.192	C.3	1	RES1	0.000	
14	 C31	27.363	18.987	16.173	C.3	1	RES1	0.000	
15	 C32	26.265	19.761	16.815	C.2	1	RES1	0.000	
16	 C33	24.796	19.385	14.832	C.2	1	RES1	0.000	
17	 C34	26.179	17.117	12.151	C.2	1	RES1	0.000	
18	 C35	25.298	16.313	11.331	C.2	1	RES1	0.000	
19	 C36	25.569	15.513	10.246	C.2	1	RES1	0.000	
@<TRIPOS>BOND
1 7 8 ar
2 7 19 ar
3 8 9 ar
4 9 10 ar
5 10 11 ar
6 10 18 ar
7 1 11 ar
8 3 11 2
9 1 12 1
10 12 13 1
11 12 16 1
12 13 14 1
13 14 15 1
14 2 15 1
15 4 15 2
16 2 16 1
17 5 16 2
18 1 17 ar
19 6 17 2
20 17 18 ar
21 18 19 ar
@<TRIPOS>SUBSTRUCTURE
1	RES1	1	GROUP	1 ****	RES
