# created with PyMOL 2.5.2
@<TRIPOS>MOLECULE
38_7BQU_E3ligase
19 21 1                 
SMALL
USER_CHARGES
@<TRIPOS>ATOM
1	  O3	27.400	17.214	11.955	O.2	1	RES1	0.000	
2	  N4	25.415	17.714	13.150	N.2	1	RES1	0.000	
3	  O4	26.349	20.288	17.894	O.2	1	RES1	0.000	
4	  N5	25.083	19.891	16.093	N.pl3	1	RES1	0.000	
5	  O5	23.723	19.609	14.265	O.2	1	RES1	0.000	
6	  O6	23.107	17.697	13.650	O.2	1	RES1	0.000	
7	 C23	25.554	15.504	10.257	C.2	1	RES1	0.000	
8	 C24	24.469	14.824	9.653	C.2	1	RES1	0.000	
9	 C25	23.172	14.977	10.170	C.2	1	RES1	0.000	
10	 C26	22.941	15.792	11.304	C.2	1	RES1	0.000	
11	 C27	24.027	16.447	11.867	C.2	1	RES1	0.000	
12	 C28	25.295	16.295	11.350	C.2	1	RES1	0.000	
13	 C29	26.198	17.119	12.170	C.2	1	RES1	0.000	
14	 C30	25.945	18.628	14.135	C.3	1	RES1	0.000	
15	 C31	26.830	17.972	15.172	C.3	1	RES1	0.000	
16	 C32	27.370	18.997	16.135	C.3	1	RES1	0.000	
17	 C33	26.238	19.757	16.798	C.2	1	RES1	0.000	
18	 C34	24.790	19.398	14.829	C.2	1	RES1	0.000	
19	 C35	24.087	17.331	12.989	C.2	1	RES1	0.000	
@<TRIPOS>BOND
1 7 8 ar
2 7 12 ar
3 8 9 ar
4 9 10 ar
5 10 11 ar
6 11 12 ar
7 11 19 ar
8 12 13 ar
9 1 13 2
10 2 13 ar
11 2 14 1
12 14 15 1
13 14 18 1
14 15 16 1
15 16 17 1
16 3 17 2
17 4 17 1
18 4 18 1
19 5 18 2
20 2 19 ar
21 6 19 2
@<TRIPOS>SUBSTRUCTURE
1	RES1	1	GROUP	1 ****	RES
