# created with PyMOL 2.5.2
@<TRIPOS>MOLECULE
38_7BQU_E3ligase
19 21 1                 
SMALL
USER_CHARGES
@<TRIPOS>ATOM
1	  O3	27.380	17.227	11.935	O.2	1	RES1	0.000	
2	  N4	25.427	17.695	13.141	N.2	1	RES1	0.000	
3	  O4	26.359	20.288	17.904	O.2	1	RES1	0.000	
4	  N5	25.065	19.882	16.079	N.pl3	1	RES1	0.000	
5	  O5	23.732	19.619	14.283	O.2	1	RES1	0.000	
6	  O6	23.109	17.712	13.643	O.2	1	RES1	0.000	
7	 C22	25.551	15.504	10.259	C.2	1	RES1	0.000	
8	 C23	24.458	14.816	9.663	C.2	1	RES1	0.000	
9	 C24	23.172	14.981	10.190	C.2	1	RES1	0.000	
10	 C25	22.940	15.790	11.283	C.2	1	RES1	0.000	
11	 C26	24.014	16.427	11.844	C.2	1	RES1	0.000	
12	 C27	25.292	16.302	11.361	C.2	1	RES1	0.000	
13	 C28	26.201	17.104	12.149	C.2	1	RES1	0.000	
14	 C29	25.954	18.619	14.141	C.3	1	RES1	0.000	
15	 C30	26.855	17.958	15.183	C.3	1	RES1	0.000	
16	 C31	27.359	19.018	16.161	C.3	1	RES1	0.000	
17	 C32	26.219	19.769	16.810	C.2	1	RES1	0.000	
18	 C33	24.801	19.389	14.822	C.2	1	RES1	0.000	
19	 C34	24.107	17.353	12.988	C.2	1	RES1	0.000	
@<TRIPOS>BOND
1 7 8 ar
2 7 12 ar
3 8 9 ar
4 9 10 ar
5 10 11 ar
6 11 12 ar
7 11 19 ar
8 12 13 ar
9 1 13 2
10 2 13 ar
11 2 14 1
12 14 15 1
13 14 18 1
14 15 16 1
15 16 17 1
16 3 17 2
17 4 17 1
18 4 18 1
19 5 18 2
20 2 19 ar
21 6 19 2
@<TRIPOS>SUBSTRUCTURE
1	RES1	1	GROUP	1 ****	RES
