# created with PyMOL 2.5.2
@<TRIPOS>MOLECULE
BRD4_7BQU_E3ligase
19 21 1                 
SMALL
USER_CHARGES
@<TRIPOS>ATOM
1	  O2	27.399	17.219	11.971	O.2	1	RES1	0.000	
2	  O3	26.374	20.300	17.894	O.2	1	RES1	0.000	
3	  O4	23.716	19.601	14.298	O.2	1	RES1	0.000	
4	  O5	23.109	17.698	13.651	O.2	1	RES1	0.000	
5	  N6	25.397	17.699	13.142	N.2	1	RES1	0.000	
6	  N7	25.074	19.883	16.103	N.pl3	1	RES1	0.000	
7	 C17	25.549	15.502	10.239	C.2	1	RES1	0.000	
8	 C18	24.492	14.814	9.660	C.2	1	RES1	0.000	
9	 C19	23.194	14.973	10.179	C.2	1	RES1	0.000	
10	 C20	22.919	15.809	11.282	C.2	1	RES1	0.000	
11	 C21	24.015	16.442	11.861	C.2	1	RES1	0.000	
12	 C22	25.296	16.289	11.356	C.2	1	RES1	0.000	
13	 C23	26.190	17.111	12.141	C.2	1	RES1	0.000	
14	 C24	25.933	18.645	14.148	C.3	1	RES1	0.000	
15	 C25	26.842	17.962	15.165	C.3	1	RES1	0.000	
16	 C26	27.371	19.018	16.139	C.3	1	RES1	0.000	
17	 C27	26.243	19.774	16.800	C.2	1	RES1	0.000	
18	 C28	24.800	19.368	14.820	C.2	1	RES1	0.000	
19	 C29	24.080	17.348	12.988	C.2	1	RES1	0.000	
@<TRIPOS>BOND
1 1 13 2
2 7 8 ar
3 7 12 ar
4 8 9 ar
5 9 10 ar
6 10 11 ar
7 11 12 ar
8 11 19 ar
9 12 13 ar
10 5 13 ar
11 5 14 1
12 14 15 1
13 14 18 1
14 15 16 1
15 16 17 1
16 2 17 2
17 6 17 1
18 3 18 2
19 6 18 1
20 4 19 2
21 5 19 ar
@<TRIPOS>SUBSTRUCTURE
1	RES1	1	GROUP	1 ****	RES
