# created with PyMOL 2.5.2
@<TRIPOS>MOLECULE
38_6H0G_E3ligase
20 22 1                 
SMALL
USER_CHARGES
@<TRIPOS>ATOM
1	  O3	2.801	53.734	-82.841	O.2	1	RES1	0.000	
2	  N4	1.966	54.443	-85.591	N.pl3	1	RES1	0.000	
3	  O4	3.675	49.694	-77.392	O.2	1	RES1	0.000	
4	  N5	1.737	51.768	-82.108	N.2	1	RES1	0.000	
5	  O5	0.193	50.487	-80.188	O.2	1	RES1	0.000	
6	  N6	1.997	50.086	-78.833	N.pl3	1	RES1	0.000	
7	  O6	0.441	49.805	-82.286	O.2	1	RES1	0.000	
8	 C17	1.318	53.189	-85.455	C.2	1	RES1	0.000	
9	 C18	0.531	52.690	-86.457	C.2	1	RES1	0.000	
10	 C19	-0.191	51.479	-86.286	C.2	1	RES1	0.000	
11	 C20	-0.130	50.790	-85.087	C.2	1	RES1	0.000	
12	 C21	0.651	51.343	-84.075	C.2	1	RES1	0.000	
13	 C22	1.354	52.499	-84.244	C.2	1	RES1	0.000	
14	 C23	2.074	52.774	-82.998	C.2	1	RES1	0.000	
15	 C24	2.250	51.631	-80.746	C.3	1	RES1	0.000	
16	 C25	3.715	51.233	-80.683	C.3	1	RES1	0.000	
17	 C26	4.163	51.183	-79.230	C.3	1	RES1	0.000	
18	 C27	3.282	50.239	-78.398	C.2	1	RES1	0.000	
19	 C28	1.384	50.670	-79.949	C.2	1	RES1	0.000	
20	 C29	0.915	50.856	-82.719	C.2	1	RES1	0.000	
@<TRIPOS>BOND
1 2 8 1
2 8 9 ar
3 8 13 ar
4 9 10 ar
5 10 11 ar
6 11 12 ar
7 12 13 ar
8 12 20 ar
9 13 14 ar
10 1 14 2
11 4 14 ar
12 4 15 1
13 15 16 1
14 15 19 1
15 16 17 1
16 17 18 1
17 3 18 2
18 6 18 1
19 5 19 2
20 6 19 1
21 4 20 ar
22 7 20 2
@<TRIPOS>SUBSTRUCTURE
1	RES1	1	GROUP	1 ****	RES
