# created with PyMOL 2.5.2
@<TRIPOS>MOLECULE
38_6H0G_E3ligase
20 22 1                 
SMALL
USER_CHARGES
@<TRIPOS>ATOM
1	  O3	2.800	53.746	-82.822	O.2	1	RES1	0.000	
2	  N4	1.961	54.447	-85.598	N.pl3	1	RES1	0.000	
3	  O4	3.710	49.697	-77.411	O.2	1	RES1	0.000	
4	  N5	1.700	51.779	-82.119	N.2	1	RES1	0.000	
5	  O5	0.185	50.452	-80.162	O.2	1	RES1	0.000	
6	  N6	2.000	50.096	-78.844	N.pl3	1	RES1	0.000	
7	  O6	0.423	49.808	-82.270	O.2	1	RES1	0.000	
8	 C18	1.333	53.194	-85.445	C.2	1	RES1	0.000	
9	 C19	0.544	52.690	-86.462	C.2	1	RES1	0.000	
10	 C20	-0.171	51.490	-86.298	C.2	1	RES1	0.000	
11	 C21	-0.095	50.782	-85.088	C.2	1	RES1	0.000	
12	 C22	0.671	51.317	-84.072	C.2	1	RES1	0.000	
13	 C23	1.363	52.501	-84.250	C.2	1	RES1	0.000	
14	 C24	2.044	52.795	-82.979	C.2	1	RES1	0.000	
15	 C25	2.229	51.629	-80.741	C.3	1	RES1	0.000	
16	 C26	3.706	51.230	-80.681	C.3	1	RES1	0.000	
17	 C27	4.165	51.175	-79.253	C.3	1	RES1	0.000	
18	 C28	3.302	50.257	-78.419	C.2	1	RES1	0.000	
19	 C29	1.358	50.667	-79.920	C.2	1	RES1	0.000	
20	 C30	0.898	50.842	-82.733	C.2	1	RES1	0.000	
@<TRIPOS>BOND
1 2 8 1
2 8 9 ar
3 8 13 ar
4 9 10 ar
5 10 11 ar
6 11 12 ar
7 12 13 ar
8 12 20 ar
9 13 14 ar
10 1 14 2
11 4 14 ar
12 4 15 1
13 15 16 1
14 15 19 1
15 16 17 1
16 17 18 1
17 3 18 2
18 6 18 1
19 5 19 2
20 6 19 1
21 4 20 ar
22 7 20 2
@<TRIPOS>SUBSTRUCTURE
1	RES1	1	GROUP	1 ****	RES
