# created with PyMOL 2.5.2
@<TRIPOS>MOLECULE
38_6H0G_E3ligase
20 22 1                 
SMALL
USER_CHARGES
@<TRIPOS>ATOM
1	  O3	2.824	53.752	-82.864	O.2	1	RES1	0.000	
2	  N4	1.963	54.445	-85.609	N.pl3	1	RES1	0.000	
3	  O4	3.668	49.673	-77.404	O.3	1	RES1	0.000	
4	  N5	1.743	51.794	-82.122	N.2	1	RES1	0.000	
5	  O5	0.204	50.457	-80.207	O.2	1	RES1	0.000	
6	  N6	1.964	50.090	-78.858	N.pl3	1	RES1	0.000	
7	  O6	0.440	49.837	-82.240	O.2	1	RES1	0.000	
8	 C19	1.328	53.213	-85.433	C.2	1	RES1	0.000	
9	 C20	0.509	52.679	-86.448	C.2	1	RES1	0.000	
10	 C21	-0.204	51.471	-86.263	C.2	1	RES1	0.000	
11	 C22	-0.111	50.768	-85.064	C.2	1	RES1	0.000	
12	 C23	0.670	51.320	-84.068	C.2	1	RES1	0.000	
13	 C24	1.357	52.504	-84.249	C.2	1	RES1	0.000	
14	 C25	2.081	52.788	-83.014	C.2	1	RES1	0.000	
15	 C26	2.260	51.655	-80.736	C.3	1	RES1	0.000	
16	 C27	3.714	51.254	-80.672	C.3	1	RES1	0.000	
17	 C28	4.150	51.165	-79.211	C.3	1	RES1	0.000	
18	 C29	3.271	50.209	-78.439	C.3	1	RES1	0.000	
19	 C30	1.372	50.662	-79.957	C.2	1	RES1	0.000	
20	 C31	0.921	50.859	-82.709	C.2	1	RES1	0.000	
@<TRIPOS>BOND
1 2 8 1
2 8 9 ar
3 8 13 ar
4 9 10 ar
5 10 11 ar
6 11 12 ar
7 12 13 ar
8 12 20 ar
9 13 14 ar
10 1 14 2
11 4 14 ar
12 4 15 1
13 15 16 1
14 15 19 1
15 16 17 1
16 17 18 1
17 3 18 1
18 6 18 1
19 5 19 2
20 6 19 1
21 4 20 ar
22 7 20 2
@<TRIPOS>SUBSTRUCTURE
1	RES1	1	GROUP	1 ****	RES
