# created with PyMOL 2.5.2
@<TRIPOS>MOLECULE
38_6H0G_E3ligase
20 22 1                 
SMALL
USER_CHARGES
@<TRIPOS>ATOM
1	  O3	2.830	53.738	-82.866	O.2	1	RES1	0.000	
2	  N4	1.979	54.439	-85.630	N.pl3	1	RES1	0.000	
3	  O4	3.685	49.657	-77.403	O.3	1	RES1	0.000	
4	  N5	1.748	51.797	-82.114	N.2	1	RES1	0.000	
5	  O5	0.238	50.392	-80.278	O.2	1	RES1	0.000	
6	  N6	1.995	50.050	-78.919	N.pl3	1	RES1	0.000	
7	  O6	0.417	49.851	-82.221	O.2	1	RES1	0.000	
8	 C19	1.321	53.187	-85.460	C.2	1	RES1	0.000	
9	 C20	0.532	52.649	-86.458	C.2	1	RES1	0.000	
10	 C21	-0.186	51.480	-86.262	C.2	1	RES1	0.000	
11	 C22	-0.154	50.787	-85.060	C.2	1	RES1	0.000	
12	 C23	0.651	51.348	-84.060	C.2	1	RES1	0.000	
13	 C24	1.368	52.510	-84.241	C.2	1	RES1	0.000	
14	 C25	2.072	52.809	-82.977	C.2	1	RES1	0.000	
15	 C26	2.245	51.659	-80.726	C.3	1	RES1	0.000	
16	 C27	3.731	51.296	-80.637	C.3	1	RES1	0.000	
17	 C28	4.115	51.222	-79.177	C.3	1	RES1	0.000	
18	 C29	3.277	50.219	-78.413	C.3	1	RES1	0.000	
19	 C30	1.367	50.623	-79.975	C.2	1	RES1	0.000	
20	 C31	0.895	50.881	-82.688	C.2	1	RES1	0.000	
@<TRIPOS>BOND
1 2 8 1
2 8 9 ar
3 8 13 ar
4 9 10 ar
5 10 11 ar
6 11 12 ar
7 12 13 ar
8 12 20 ar
9 13 14 ar
10 1 14 2
11 4 14 ar
12 4 15 1
13 15 16 1
14 15 19 1
15 16 17 1
16 17 18 1
17 3 18 1
18 6 18 1
19 5 19 2
20 6 19 1
21 4 20 ar
22 7 20 2
@<TRIPOS>SUBSTRUCTURE
1	RES1	1	GROUP	1 ****	RES
