# created with PyMOL 2.5.2
@<TRIPOS>MOLECULE
38_6H0G_E3ligase
20 22 1                 
SMALL
USER_CHARGES
@<TRIPOS>ATOM
1	  O3	2.778	53.769	-82.839	O.2	1	RES1	0.000	
2	  N4	1.957	54.447	-85.613	N.pl3	1	RES1	0.000	
3	  O4	3.686	49.653	-77.422	O.3	1	RES1	0.000	
4	  N5	1.727	51.806	-82.090	N.2	1	RES1	0.000	
5	  O5	0.206	50.464	-80.194	O.2	1	RES1	0.000	
6	  N6	1.984	50.064	-78.875	N.pl3	1	RES1	0.000	
7	  O6	0.455	49.844	-82.232	O.2	1	RES1	0.000	
8	 C19	1.316	53.214	-85.441	C.2	1	RES1	0.000	
9	 C20	0.529	52.662	-86.471	C.2	1	RES1	0.000	
10	 C21	-0.164	51.466	-86.278	C.2	1	RES1	0.000	
11	 C22	-0.104	50.760	-85.068	C.2	1	RES1	0.000	
12	 C23	0.677	51.337	-84.063	C.2	1	RES1	0.000	
13	 C24	1.347	52.508	-84.262	C.2	1	RES1	0.000	
14	 C25	2.066	52.795	-83.014	C.2	1	RES1	0.000	
15	 C26	2.223	51.665	-80.743	C.3	1	RES1	0.000	
16	 C27	3.722	51.230	-80.671	C.3	1	RES1	0.000	
17	 C28	4.157	51.167	-79.216	C.3	1	RES1	0.000	
18	 C29	3.273	50.217	-78.443	C.3	1	RES1	0.000	
19	 C30	1.382	50.662	-79.942	C.2	1	RES1	0.000	
20	 C31	0.909	50.864	-82.687	C.2	1	RES1	0.000	
@<TRIPOS>BOND
1 2 8 1
2 8 9 ar
3 8 13 ar
4 9 10 ar
5 10 11 ar
6 11 12 ar
7 12 13 ar
8 12 20 ar
9 13 14 ar
10 1 14 2
11 4 14 ar
12 4 15 1
13 15 16 1
14 15 19 1
15 16 17 1
16 17 18 1
17 3 18 1
18 6 18 1
19 5 19 2
20 6 19 1
21 4 20 ar
22 7 20 2
@<TRIPOS>SUBSTRUCTURE
1	RES1	1	GROUP	1 ****	RES
