# created with PyMOL 2.5.2
@<TRIPOS>MOLECULE
38_6H0G_E3ligase
20 22 1                 
SMALL
USER_CHARGES
@<TRIPOS>ATOM
1	  O3	2.779	53.765	-82.838	O.2	1	RES1	0.000	
2	  N4	1.951	54.454	-85.613	N.pl3	1	RES1	0.000	
3	  O4	3.718	49.687	-77.415	O.2	1	RES1	0.000	
4	  N5	1.709	51.788	-82.096	N.2	1	RES1	0.000	
5	  O5	0.192	50.461	-80.150	O.2	1	RES1	0.000	
6	  N6	1.979	50.088	-78.845	N.pl3	1	RES1	0.000	
7	  O6	0.438	49.843	-82.268	O.2	1	RES1	0.000	
8	 C20	1.349	53.224	-85.436	C.2	1	RES1	0.000	
9	 C21	0.545	52.657	-86.471	C.2	1	RES1	0.000	
10	 C22	-0.155	51.472	-86.282	C.2	1	RES1	0.000	
11	 C23	-0.094	50.774	-85.098	C.2	1	RES1	0.000	
12	 C24	0.669	51.314	-84.071	C.2	1	RES1	0.000	
13	 C25	1.341	52.506	-84.239	C.2	1	RES1	0.000	
14	 C26	2.042	52.795	-82.980	C.2	1	RES1	0.000	
15	 C27	2.225	51.641	-80.728	C.3	1	RES1	0.000	
16	 C28	3.733	51.232	-80.691	C.3	1	RES1	0.000	
17	 C29	4.141	51.156	-79.240	C.3	1	RES1	0.000	
18	 C30	3.291	50.224	-78.441	C.2	1	RES1	0.000	
19	 C31	1.382	50.670	-79.953	C.2	1	RES1	0.000	
20	 C32	0.889	50.840	-82.712	C.2	1	RES1	0.000	
@<TRIPOS>BOND
1 2 8 1
2 8 9 ar
3 8 13 ar
4 9 10 ar
5 10 11 ar
6 11 12 ar
7 12 13 ar
8 12 20 ar
9 13 14 ar
10 1 14 2
11 4 14 ar
12 4 15 1
13 15 16 1
14 15 19 1
15 16 17 1
16 17 18 1
17 3 18 2
18 6 18 1
19 5 19 2
20 6 19 1
21 4 20 ar
22 7 20 2
@<TRIPOS>SUBSTRUCTURE
1	RES1	1	GROUP	1 ****	RES
