# created with PyMOL 2.5.2
@<TRIPOS>MOLECULE
38_6H0G_E3ligase
20 22 1                 
SMALL
USER_CHARGES
@<TRIPOS>ATOM
1	  O3	2.776	53.692	-82.774	O.2	1	RES1	0.000	
2	  N4	2.143	54.371	-85.602	N.pl3	1	RES1	0.000	
3	  O4	3.718	49.814	-77.369	O.2	1	RES1	0.000	
4	  N5	1.740	51.683	-82.142	N.2	1	RES1	0.000	
5	  O5	0.268	50.250	-80.230	O.2	1	RES1	0.000	
6	  N6	2.066	50.052	-78.867	N.pl3	1	RES1	0.000	
7	  O6	0.271	49.837	-82.272	O.2	1	RES1	0.000	
8	 C20	1.337	53.235	-85.417	C.2	1	RES1	0.000	
9	 C21	0.578	52.702	-86.476	C.2	1	RES1	0.000	
10	 C22	-0.186	51.525	-86.303	C.2	1	RES1	0.000	
11	 C23	-0.185	50.835	-85.122	C.2	1	RES1	0.000	
12	 C24	0.611	51.335	-84.098	C.2	1	RES1	0.000	
13	 C25	1.340	52.492	-84.233	C.2	1	RES1	0.000	
14	 C26	2.050	52.735	-82.992	C.2	1	RES1	0.000	
15	 C27	2.193	51.609	-80.756	C.3	1	RES1	0.000	
16	 C28	3.700	51.352	-80.625	C.3	1	RES1	0.000	
17	 C29	4.126	51.346	-79.172	C.3	1	RES1	0.000	
18	 C30	3.330	50.323	-78.396	C.2	1	RES1	0.000	
19	 C31	1.413	50.561	-79.964	C.2	1	RES1	0.000	
20	 C32	0.834	50.843	-82.756	C.2	1	RES1	0.000	
@<TRIPOS>BOND
1 2 8 1
2 8 9 ar
3 8 13 ar
4 9 10 ar
5 10 11 ar
6 11 12 ar
7 12 13 ar
8 12 20 ar
9 13 14 ar
10 1 14 2
11 4 14 ar
12 4 15 1
13 15 16 1
14 15 19 1
15 16 17 1
16 17 18 1
17 3 18 2
18 6 18 1
19 5 19 2
20 6 19 1
21 4 20 ar
22 7 20 2
@<TRIPOS>SUBSTRUCTURE
1	RES1	1	GROUP	1 ****	RES
