# created with PyMOL 2.5.2
@<TRIPOS>MOLECULE
38_6H0G_E3ligase
20 22 1                 
SMALL
USER_CHARGES
@<TRIPOS>ATOM
1	  O3	2.847	53.762	-82.857	O.2	1	RES1	0.000	
2	  N4	1.969	54.452	-85.633	N.pl3	1	RES1	0.000	
3	  O4	3.653	49.644	-77.415	O.3	1	RES1	0.000	
4	  N5	1.745	51.803	-82.132	N.2	1	RES1	0.000	
5	  O5	0.215	50.422	-80.253	O.2	1	RES1	0.000	
6	  N6	1.976	50.035	-78.888	N.pl3	1	RES1	0.000	
7	  O6	0.437	49.844	-82.212	O.2	1	RES1	0.000	
8	 C21	1.333	53.182	-85.453	C.2	1	RES1	0.000	
9	 C22	0.507	52.668	-86.462	C.2	1	RES1	0.000	
10	 C23	-0.211	51.468	-86.286	C.2	1	RES1	0.000	
11	 C24	-0.146	50.777	-85.058	C.2	1	RES1	0.000	
12	 C25	0.657	51.346	-84.038	C.2	1	RES1	0.000	
13	 C26	1.355	52.498	-84.241	C.2	1	RES1	0.000	
14	 C27	2.089	52.803	-83.010	C.2	1	RES1	0.000	
15	 C28	2.255	51.668	-80.734	C.3	1	RES1	0.000	
16	 C29	3.709	51.280	-80.642	C.3	1	RES1	0.000	
17	 C30	4.137	51.195	-79.187	C.3	1	RES1	0.000	
18	 C31	3.274	50.225	-78.402	C.3	1	RES1	0.000	
19	 C32	1.393	50.640	-79.974	C.2	1	RES1	0.000	
20	 C33	0.930	50.880	-82.690	C.2	1	RES1	0.000	
@<TRIPOS>BOND
1 2 8 1
2 8 9 ar
3 8 13 ar
4 9 10 ar
5 10 11 ar
6 11 12 ar
7 12 13 ar
8 12 20 ar
9 13 14 ar
10 1 14 2
11 4 14 ar
12 4 15 1
13 15 16 1
14 15 19 1
15 16 17 1
16 17 18 1
17 3 18 1
18 6 18 1
19 5 19 2
20 6 19 1
21 4 20 ar
22 7 20 2
@<TRIPOS>SUBSTRUCTURE
1	RES1	1	GROUP	1 ****	RES
