# created with PyMOL 2.5.2
@<TRIPOS>MOLECULE
38_6H0G_E3ligase
20 22 1                 
SMALL
USER_CHARGES
@<TRIPOS>ATOM
1	  N5	1.960	54.450	-85.615	N.pl3	1	RES1	0.000	
2	  O5	2.850	53.714	-82.865	O.2	1	RES1	0.000	
3	  N6	1.756	51.788	-82.123	N.2	1	RES1	0.000	
4	  O6	3.656	49.681	-77.394	O.3	1	RES1	0.000	
5	  N7	1.987	50.059	-78.868	N.pl3	1	RES1	0.000	
6	  O7	0.221	50.426	-80.240	O.2	1	RES1	0.000	
7	  O8	0.421	49.858	-82.231	O.2	1	RES1	0.000	
8	 C26	1.321	53.214	-85.457	C.2	1	RES1	0.000	
9	 C27	0.510	52.671	-86.460	C.2	1	RES1	0.000	
10	 C28	-0.223	51.482	-86.278	C.2	1	RES1	0.000	
11	 C29	-0.136	50.791	-85.061	C.2	1	RES1	0.000	
12	 C30	0.653	51.315	-84.068	C.2	1	RES1	0.000	
13	 C31	1.358	52.497	-84.242	C.2	1	RES1	0.000	
14	 C32	2.088	52.783	-83.019	C.2	1	RES1	0.000	
15	 C33	2.260	51.657	-80.755	C.3	1	RES1	0.000	
16	 C34	3.734	51.261	-80.647	C.3	1	RES1	0.000	
17	 C35	4.140	51.195	-79.172	C.3	1	RES1	0.000	
18	 C36	3.251	50.218	-78.397	C.3	1	RES1	0.000	
19	 C37	1.397	50.665	-79.963	C.2	1	RES1	0.000	
20	 C38	0.921	50.869	-82.709	C.2	1	RES1	0.000	
@<TRIPOS>BOND
1 1 8 1
2 8 9 ar
3 8 13 ar
4 9 10 ar
5 10 11 ar
6 11 12 ar
7 12 13 ar
8 12 20 ar
9 13 14 ar
10 2 14 2
11 3 14 ar
12 3 15 1
13 15 16 1
14 15 19 1
15 16 17 1
16 17 18 1
17 4 18 1
18 5 18 1
19 5 19 1
20 6 19 2
21 3 20 ar
22 7 20 2
@<TRIPOS>SUBSTRUCTURE
1	RES1	1	GROUP	1 ****	RES
