# created with PyMOL 2.5.2
@<TRIPOS>MOLECULE
38_6H0G_E3ligase
20 22 1                 
SMALL
USER_CHARGES
@<TRIPOS>ATOM
1	  O3	2.806	53.757	-82.850	O.2	1	RES1	0.000	
2	  O4	3.689	49.640	-77.430	O.3	1	RES1	0.000	
3	  N5	1.966	54.458	-85.611	N.pl3	1	RES1	0.000	
4	  O5	0.189	50.455	-80.206	O.2	1	RES1	0.000	
5	  N6	1.736	51.806	-82.099	N.2	1	RES1	0.000	
6	  O6	0.457	49.815	-82.233	O.2	1	RES1	0.000	
7	  N7	1.966	50.077	-78.884	N.pl3	1	RES1	0.000	
8	 C21	1.325	53.211	-85.470	C.2	1	RES1	0.000	
9	 C22	0.508	52.669	-86.444	C.2	1	RES1	0.000	
10	 C23	-0.175	51.462	-86.284	C.2	1	RES1	0.000	
11	 C24	-0.121	50.774	-85.052	C.2	1	RES1	0.000	
12	 C25	0.665	51.342	-84.074	C.2	1	RES1	0.000	
13	 C26	1.360	52.498	-84.252	C.2	1	RES1	0.000	
14	 C27	2.070	52.801	-83.005	C.2	1	RES1	0.000	
15	 C28	2.247	51.662	-80.733	C.3	1	RES1	0.000	
16	 C29	3.711	51.250	-80.657	C.3	1	RES1	0.000	
17	 C30	4.157	51.166	-79.213	C.3	1	RES1	0.000	
18	 C31	3.281	50.222	-78.420	C.3	1	RES1	0.000	
19	 C32	1.369	50.671	-79.942	C.2	1	RES1	0.000	
20	 C33	0.917	50.859	-82.707	C.2	1	RES1	0.000	
@<TRIPOS>BOND
1 3 8 1
2 8 9 ar
3 8 13 ar
4 9 10 ar
5 10 11 ar
6 11 12 ar
7 12 13 ar
8 12 20 ar
9 13 14 ar
10 1 14 2
11 5 14 ar
12 5 15 1
13 15 16 1
14 15 19 1
15 16 17 1
16 17 18 1
17 2 18 1
18 7 18 1
19 4 19 2
20 7 19 1
21 5 20 ar
22 6 20 2
@<TRIPOS>SUBSTRUCTURE
1	RES1	1	GROUP	1 ****	RES
