# created with PyMOL 2.5.2
@<TRIPOS>MOLECULE
BRD4_7BQU_E3ligase
19 21 1                 
SMALL
USER_CHARGES
@<TRIPOS>ATOM
1	  O3	27.387	17.203	11.956	O.2	1	RES1	0.000	
2	  O4	26.351	20.268	17.903	O.2	1	RES1	0.000	
3	  O5	23.704	19.585	14.303	O.2	1	RES1	0.000	
4	  N6	25.424	17.701	13.126	N.2	1	RES1	0.000	
5	  O6	23.128	17.735	13.642	O.2	1	RES1	0.000	
6	  N7	25.069	19.877	16.090	N.pl3	1	RES1	0.000	
7	 C18	25.544	15.497	10.255	C.2	1	RES1	0.000	
8	 C19	24.468	14.826	9.667	C.2	1	RES1	0.000	
9	 C20	23.190	14.971	10.184	C.2	1	RES1	0.000	
10	 C21	22.948	15.795	11.284	C.2	1	RES1	0.000	
11	 C22	24.003	16.425	11.859	C.2	1	RES1	0.000	
12	 C23	25.280	16.286	11.357	C.2	1	RES1	0.000	
13	 C24	26.188	17.126	12.157	C.2	1	RES1	0.000	
14	 C25	25.964	18.629	14.135	C.3	1	RES1	0.000	
15	 C26	26.851	17.981	15.166	C.3	1	RES1	0.000	
16	 C27	27.378	19.037	16.142	C.3	1	RES1	0.000	
17	 C28	26.222	19.771	16.817	C.2	1	RES1	0.000	
18	 C29	24.807	19.376	14.822	C.2	1	RES1	0.000	
19	 C30	24.088	17.365	12.975	C.2	1	RES1	0.000	
@<TRIPOS>BOND
1 7 8 ar
2 7 12 ar
3 8 9 ar
4 9 10 ar
5 10 11 ar
6 11 12 ar
7 11 19 ar
8 12 13 ar
9 1 13 2
10 4 13 ar
11 4 14 1
12 14 15 1
13 14 18 1
14 15 16 1
15 16 17 1
16 2 17 2
17 6 17 1
18 3 18 2
19 6 18 1
20 4 19 ar
21 5 19 2
@<TRIPOS>SUBSTRUCTURE
1	RES1	1	GROUP	1 ****	RES
