# created with PyMOL 2.5.2
@<TRIPOS>MOLECULE
TRKA_6H0G_E3ligase
20 22 1                 
SMALL
USER_CHARGES
@<TRIPOS>ATOM
1	  C1	3.388	50.709	-78.375	C.2	1	RES1	0.000	
2	  N1	1.706	51.039	-82.319	N.2	1	RES1	0.000	
3	  O1	3.863	50.738	-77.225	O.2	1	RES1	0.000	
4	  C2	3.981	49.881	-79.473	C.3	1	RES1	0.000	
5	  N2	1.665	54.678	-84.753	N.pl3	1	RES1	0.000	
6	  O2	0.691	49.092	-83.146	O.2	1	RES1	0.000	
7	  C3	3.652	50.449	-80.817	C.3	1	RES1	0.000	
8	  C4	2.151	50.548	-81.004	C.3	1	RES1	0.000	
9	  O4	2.327	53.316	-82.211	O.2	1	RES1	0.000	
10	  C5	1.035	50.267	-83.206	C.2	1	RES1	0.000	
11	  O5	0.511	52.019	-80.001	O.2	1	RES1	0.000	
12	  C6	0.721	51.103	-84.369	C.2	1	RES1	0.000	
13	  C7	0.082	50.837	-85.550	C.2	1	RES1	0.000	
14	  C8	-0.010	51.855	-86.504	C.2	1	RES1	0.000	
15	  C9	0.456	53.128	-86.199	C.2	1	RES1	0.000	
16	 C10	1.080	53.438	-85.003	C.2	1	RES1	0.000	
17	 N10	2.222	51.374	-78.680	N.pl3	1	RES1	0.000	
18	 C38	1.228	52.373	-84.103	C.2	1	RES1	0.000	
19	 C39	1.815	52.335	-82.752	C.2	1	RES1	0.000	
20	 C40	1.558	51.416	-79.874	C.2	1	RES1	0.000	
@<TRIPOS>BOND
1 1 3 2
2 1 4 1
3 1 17 1
4 2 8 1
5 2 10 ar
6 2 19 ar
7 4 7 1
8 6 10 2
9 7 8 1
10 8 20 1
11 10 12 ar
12 12 13 ar
13 13 14 ar
14 14 15 ar
15 5 16 1
16 15 16 ar
17 16 18 ar
18 17 20 1
19 12 18 ar
20 18 19 ar
21 9 19 2
22 11 20 2
@<TRIPOS>SUBSTRUCTURE
1	RES1	1	GROUP	1 ****	RES
