# created with PyMOL 2.5.2
@<TRIPOS>MOLECULE
TRKA_6H0G_E3ligase
20 22 1                 
SMALL
USER_CHARGES
@<TRIPOS>ATOM
1	  C1	3.381	50.707	-78.382	C.2	1	RES1	0.000	
2	  N1	1.710	51.047	-82.300	N.2	1	RES1	0.000	
3	  O1	3.865	50.731	-77.245	O.2	1	RES1	0.000	
4	  C2	3.994	49.898	-79.490	C.3	1	RES1	0.000	
5	  N2	1.674	54.693	-84.757	N.pl3	1	RES1	0.000	
6	  O2	0.679	49.089	-83.130	O.2	1	RES1	0.000	
7	  C3	3.652	50.462	-80.826	C.3	1	RES1	0.000	
8	  C4	2.140	50.547	-80.991	C.3	1	RES1	0.000	
9	  O4	2.307	53.304	-82.224	O.2	1	RES1	0.000	
10	  C5	1.035	50.242	-83.207	C.2	1	RES1	0.000	
11	  O5	0.489	52.009	-80.006	O.2	1	RES1	0.000	
12	  C6	0.738	51.132	-84.365	C.2	1	RES1	0.000	
13	  C7	0.090	50.822	-85.546	C.2	1	RES1	0.000	
14	  C8	-0.034	51.849	-86.507	C.2	1	RES1	0.000	
15	  C9	0.477	53.146	-86.228	C.2	1	RES1	0.000	
16	 C10	1.097	53.432	-84.993	C.2	1	RES1	0.000	
17	 N10	2.229	51.381	-78.654	N.pl3	1	RES1	0.000	
18	 C39	1.216	52.369	-84.082	C.2	1	RES1	0.000	
19	 C40	1.830	52.336	-82.755	C.2	1	RES1	0.000	
20	 C41	1.557	51.397	-79.881	C.2	1	RES1	0.000	
@<TRIPOS>BOND
1 1 3 2
2 1 4 1
3 1 17 1
4 2 8 1
5 2 10 ar
6 2 19 ar
7 4 7 1
8 6 10 2
9 7 8 1
10 8 20 1
11 9 19 2
12 10 12 ar
13 12 13 ar
14 13 14 ar
15 14 15 ar
16 5 16 1
17 15 16 ar
18 16 18 ar
19 17 20 1
20 12 18 ar
21 18 19 ar
22 11 20 2
@<TRIPOS>SUBSTRUCTURE
1	RES1	1	GROUP	1 ****	RES
