# created with PyMOL 2.5.2
@<TRIPOS>MOLECULE
TRKA_6H0G_E3ligase
20 22 1                 
SMALL
USER_CHARGES
@<TRIPOS>ATOM
1	  C1	3.379	50.746	-78.367	C.2	1	RES1	0.000	
2	  N1	1.702	51.043	-82.306	N.2	1	RES1	0.000	
3	  O1	3.850	50.742	-77.245	O.2	1	RES1	0.000	
4	  C2	4.021	49.918	-79.491	C.3	1	RES1	0.000	
5	  N2	1.706	54.675	-84.767	N.pl3	1	RES1	0.000	
6	  O2	0.673	49.107	-83.143	O.2	1	RES1	0.000	
7	  C3	3.701	50.477	-80.844	C.3	1	RES1	0.000	
8	  C4	2.158	50.550	-80.979	C.3	1	RES1	0.000	
9	  O4	2.353	53.300	-82.230	O.2	1	RES1	0.000	
10	  C5	1.020	50.244	-83.215	C.2	1	RES1	0.000	
11	  O5	0.476	51.973	-79.986	O.2	1	RES1	0.000	
12	  C6	0.731	51.117	-84.344	C.2	1	RES1	0.000	
13	  C7	0.052	50.827	-85.552	C.2	1	RES1	0.000	
14	  C8	-0.046	51.861	-86.470	C.2	1	RES1	0.000	
15	  C9	0.462	53.136	-86.207	C.2	1	RES1	0.000	
16	 C10	1.116	53.435	-84.999	C.2	1	RES1	0.000	
17	 N10	2.185	51.350	-78.691	N.pl3	1	RES1	0.000	
18	 C40	1.237	52.371	-84.083	C.2	1	RES1	0.000	
19	 C41	1.839	52.336	-82.764	C.2	1	RES1	0.000	
20	 C42	1.509	51.385	-79.883	C.2	1	RES1	0.000	
@<TRIPOS>BOND
1 1 3 2
2 1 4 1
3 1 17 1
4 2 8 1
5 2 10 ar
6 2 19 ar
7 4 7 1
8 6 10 2
9 7 8 1
10 8 20 1
11 9 19 2
12 10 12 ar
13 12 13 ar
14 13 14 ar
15 14 15 ar
16 5 16 1
17 15 16 ar
18 16 18 ar
19 17 20 1
20 12 18 ar
21 18 19 ar
22 11 20 2
@<TRIPOS>SUBSTRUCTURE
1	RES1	1	GROUP	1 ****	RES
