# created with PyMOL 2.5.2
@<TRIPOS>MOLECULE
TRKA_6H0G_E3ligase
20 22 1                 
SMALL
USER_CHARGES
@<TRIPOS>ATOM
1	  C1	3.391	50.716	-78.365	C.2	1	RES1	0.000	
2	  N1	1.700	51.043	-82.312	N.2	1	RES1	0.000	
3	  O1	3.852	50.746	-77.245	O.2	1	RES1	0.000	
4	  C2	4.006	49.902	-79.469	C.3	1	RES1	0.000	
5	  N2	1.684	54.665	-84.773	N.pl3	1	RES1	0.000	
6	  O2	0.693	49.089	-83.136	O.2	1	RES1	0.000	
7	  C3	3.674	50.459	-80.835	C.3	1	RES1	0.000	
8	  C4	2.154	50.558	-81.002	C.3	1	RES1	0.000	
9	  O4	2.332	53.303	-82.210	O.2	1	RES1	0.000	
10	  C5	1.006	50.254	-83.213	C.2	1	RES1	0.000	
11	  O5	0.499	51.986	-79.999	O.2	1	RES1	0.000	
12	  C6	0.731	51.132	-84.358	C.2	1	RES1	0.000	
13	  C7	0.076	50.824	-85.560	C.2	1	RES1	0.000	
14	  C8	-0.036	51.859	-86.486	C.2	1	RES1	0.000	
15	  C9	0.463	53.142	-86.196	C.2	1	RES1	0.000	
16	 C10	1.104	53.442	-84.985	C.2	1	RES1	0.000	
17	 N10	2.213	51.374	-78.665	N.pl3	1	RES1	0.000	
18	 C41	1.218	52.365	-84.096	C.2	1	RES1	0.000	
19	 C42	1.841	52.329	-82.776	C.2	1	RES1	0.000	
20	 C43	1.522	51.406	-79.884	C.2	1	RES1	0.000	
@<TRIPOS>BOND
1 1 3 2
2 1 4 1
3 1 17 1
4 2 8 1
5 2 10 ar
6 2 19 ar
7 4 7 1
8 6 10 2
9 7 8 1
10 8 20 1
11 9 19 2
12 10 12 ar
13 12 13 ar
14 13 14 ar
15 14 15 ar
16 5 16 1
17 15 16 ar
18 16 18 ar
19 17 20 1
20 12 18 ar
21 18 19 ar
22 11 20 2
@<TRIPOS>SUBSTRUCTURE
1	RES1	1	GROUP	1 ****	RES
