# created with PyMOL 2.5.2
@<TRIPOS>MOLECULE
TRKA_6H0G_E3ligase
20 22 1                 
SMALL
USER_CHARGES
@<TRIPOS>ATOM
1	  C1	3.391	50.725	-78.351	C.2	1	RES1	0.000	
2	  N1	1.688	51.039	-82.291	N.2	1	RES1	0.000	
3	  O1	3.861	50.760	-77.241	O.2	1	RES1	0.000	
4	  C2	4.020	49.909	-79.482	C.3	1	RES1	0.000	
5	  N2	1.706	54.661	-84.767	N.pl3	1	RES1	0.000	
6	  O2	0.674	49.095	-83.155	O.2	1	RES1	0.000	
7	  C3	3.667	50.490	-80.826	C.3	1	RES1	0.000	
8	  C4	2.160	50.541	-80.992	C.3	1	RES1	0.000	
9	  O4	2.341	53.310	-82.196	O.2	1	RES1	0.000	
10	  C5	1.018	50.258	-83.230	C.2	1	RES1	0.000	
11	  O5	0.459	51.969	-80.001	O.2	1	RES1	0.000	
12	  C6	0.724	51.122	-84.352	C.2	1	RES1	0.000	
13	  C7	0.073	50.830	-85.543	C.2	1	RES1	0.000	
14	  C8	-0.068	51.866	-86.487	C.2	1	RES1	0.000	
15	  C9	0.466	53.150	-86.230	C.2	1	RES1	0.000	
16	 C10	1.112	53.430	-85.000	C.2	1	RES1	0.000	
17	 N10	2.207	51.366	-78.667	N.pl3	1	RES1	0.000	
18	 C42	1.217	52.365	-84.087	C.2	1	RES1	0.000	
19	 C43	1.861	52.324	-82.777	C.2	1	RES1	0.000	
20	 C44	1.548	51.382	-79.891	C.2	1	RES1	0.000	
@<TRIPOS>BOND
1 1 3 2
2 1 4 1
3 1 17 1
4 2 8 1
5 2 10 ar
6 2 19 ar
7 4 7 1
8 6 10 2
9 7 8 1
10 8 20 1
11 9 19 2
12 10 12 ar
13 12 13 ar
14 13 14 ar
15 14 15 ar
16 5 16 1
17 15 16 ar
18 16 18 ar
19 17 20 1
20 12 18 ar
21 18 19 ar
22 11 20 2
@<TRIPOS>SUBSTRUCTURE
1	RES1	1	GROUP	1 ****	RES
