# created with PyMOL 2.5.2
@<TRIPOS>MOLECULE
TRKA_6H0G_E3ligase
20 22 1                 
SMALL
USER_CHARGES
@<TRIPOS>ATOM
1	  C1	3.372	50.708	-78.361	C.2	1	RES1	0.000	
2	  N1	1.705	51.030	-82.315	N.2	1	RES1	0.000	
3	  O1	3.854	50.745	-77.237	O.2	1	RES1	0.000	
4	  C2	3.973	49.888	-79.478	C.3	1	RES1	0.000	
5	  N2	1.587	54.708	-84.717	N.pl3	1	RES1	0.000	
6	  O2	0.686	49.086	-83.139	O.2	1	RES1	0.000	
7	  C3	3.658	50.428	-80.838	C.3	1	RES1	0.000	
8	  C4	2.134	50.541	-80.982	C.3	1	RES1	0.000	
9	  O4	2.362	53.292	-82.248	O.2	1	RES1	0.000	
10	  C5	1.019	50.265	-83.206	C.2	1	RES1	0.000	
11	  O5	0.504	52.025	-80.001	O.2	1	RES1	0.000	
12	  C6	0.751	51.121	-84.357	C.2	1	RES1	0.000	
13	  C7	0.115	50.817	-85.552	C.2	1	RES1	0.000	
14	  C8	-0.061	51.862	-86.466	C.2	1	RES1	0.000	
15	  C9	0.451	53.138	-86.204	C.2	1	RES1	0.000	
16	 C10	1.148	53.417	-85.034	C.2	1	RES1	0.000	
17	 N10	2.214	51.373	-78.680	N.pl3	1	RES1	0.000	
18	 C43	1.252	52.376	-84.098	C.2	1	RES1	0.000	
19	 C44	1.847	52.339	-82.776	C.2	1	RES1	0.000	
20	 C45	1.554	51.433	-79.874	C.2	1	RES1	0.000	
@<TRIPOS>BOND
1 1 3 2
2 1 4 1
3 1 17 1
4 2 8 1
5 2 10 ar
6 2 19 ar
7 4 7 1
8 6 10 2
9 7 8 1
10 8 20 1
11 9 19 2
12 10 12 ar
13 12 13 ar
14 13 14 ar
15 14 15 ar
16 5 16 1
17 15 16 ar
18 16 18 ar
19 17 20 1
20 12 18 ar
21 18 19 ar
22 11 20 2
@<TRIPOS>SUBSTRUCTURE
1	RES1	1	GROUP	1 ****	RES
