# created with PyMOL 2.5.2
@<TRIPOS>MOLECULE
TRKA_6H0G_E3ligase
20 22 1                 
SMALL
USER_CHARGES
@<TRIPOS>ATOM
1	  C1	3.380	50.725	-78.359	C.2	1	RES1	0.000	
2	  N1	1.699	51.055	-82.299	N.2	1	RES1	0.000	
3	  O1	3.872	50.758	-77.229	O.2	1	RES1	0.000	
4	  C2	4.014	49.907	-79.483	C.3	1	RES1	0.000	
5	  N2	1.680	54.669	-84.773	N.pl3	1	RES1	0.000	
6	  O2	0.679	49.088	-83.151	O.2	1	RES1	0.000	
7	  C3	3.668	50.473	-80.838	C.3	1	RES1	0.000	
8	  C4	2.151	50.550	-80.987	C.3	1	RES1	0.000	
9	  O4	2.356	53.298	-82.231	O.2	1	RES1	0.000	
10	  C5	1.020	50.270	-83.219	C.2	1	RES1	0.000	
11	  O5	0.475	51.982	-79.996	O.2	1	RES1	0.000	
12	  C6	0.728	51.116	-84.344	C.2	1	RES1	0.000	
13	  C7	0.068	50.839	-85.562	C.2	1	RES1	0.000	
14	  C8	-0.051	51.856	-86.483	C.2	1	RES1	0.000	
15	  C9	0.490	53.147	-86.213	C.2	1	RES1	0.000	
16	 C10	1.090	53.421	-84.989	C.2	1	RES1	0.000	
17	 N10	2.203	51.352	-78.678	N.pl3	1	RES1	0.000	
18	 C44	1.238	52.371	-84.092	C.2	1	RES1	0.000	
19	 C45	1.830	52.332	-82.763	C.2	1	RES1	0.000	
20	 C46	1.535	51.384	-79.880	C.2	1	RES1	0.000	
@<TRIPOS>BOND
1 1 3 2
2 1 4 1
3 1 17 1
4 2 8 1
5 2 10 ar
6 2 19 ar
7 4 7 1
8 6 10 2
9 7 8 1
10 8 20 1
11 9 19 2
12 10 12 ar
13 12 13 ar
14 13 14 ar
15 14 15 ar
16 5 16 1
17 15 16 ar
18 16 18 ar
19 17 20 1
20 12 18 ar
21 18 19 ar
22 11 20 2
@<TRIPOS>SUBSTRUCTURE
1	RES1	1	GROUP	1 ****	RES
