# created with PyMOL 2.5.2
@<TRIPOS>MOLECULE
TRKA_6H0G_E3ligase
20 22 1                 
SMALL
USER_CHARGES
@<TRIPOS>ATOM
1	  C1	3.420	50.798	-78.384	C.2	1	RES1	0.000	
2	  N1	1.613	50.999	-82.278	N.2	1	RES1	0.000	
3	  O1	3.936	50.882	-77.296	O.2	1	RES1	0.000	
4	  C2	4.049	49.990	-79.522	C.3	1	RES1	0.000	
5	  N2	1.690	54.672	-84.666	N.pl3	1	RES1	0.000	
6	  O2	0.600	49.058	-83.181	O.2	1	RES1	0.000	
7	  C3	3.652	50.534	-80.872	C.3	1	RES1	0.000	
8	  C4	2.103	50.522	-80.974	C.3	1	RES1	0.000	
9	  C5	0.964	50.233	-83.230	C.2	1	RES1	0.000	
10	  O5	2.430	53.216	-82.206	O.2	1	RES1	0.000	
11	  C6	0.712	51.130	-84.366	C.2	1	RES1	0.000	
12	  O6	0.404	51.874	-79.936	O.2	1	RES1	0.000	
13	  C7	0.061	50.838	-85.579	C.2	1	RES1	0.000	
14	  C8	-0.041	51.904	-86.501	C.2	1	RES1	0.000	
15	  C9	0.552	53.179	-86.196	C.2	1	RES1	0.000	
16	 C10	1.201	53.415	-84.984	C.2	1	RES1	0.000	
17	 N10	2.203	51.388	-78.669	N.pl3	1	RES1	0.000	
18	 C41	1.257	52.342	-84.097	C.2	1	RES1	0.000	
19	 C42	1.831	52.282	-82.759	C.2	1	RES1	0.000	
20	 C43	1.487	51.336	-79.868	C.2	1	RES1	0.000	
@<TRIPOS>BOND
1 1 3 2
2 1 4 1
3 1 17 1
4 2 8 1
5 2 9 ar
6 2 19 ar
7 4 7 1
8 6 9 2
9 7 8 1
10 8 20 1
11 9 11 ar
12 11 13 ar
13 13 14 ar
14 14 15 ar
15 5 16 1
16 15 16 ar
17 16 18 ar
18 17 20 1
19 11 18 ar
20 18 19 ar
21 10 19 2
22 12 20 2
@<TRIPOS>SUBSTRUCTURE
1	RES1	1	GROUP	1 ****	RES
