# created with PyMOL 2.5.2
@<TRIPOS>MOLECULE
TRKA_6H0G_E3ligase
20 22 1                 
SMALL
USER_CHARGES
@<TRIPOS>ATOM
1	  C1	3.384	50.686	-78.363	C.2	1	RES1	0.000	
2	  N1	1.711	51.032	-82.289	N.2	1	RES1	0.000	
3	  O1	3.874	50.730	-77.249	O.2	1	RES1	0.000	
4	  C2	4.001	49.881	-79.471	C.3	1	RES1	0.000	
5	  N2	1.668	54.700	-84.752	N.pl3	1	RES1	0.000	
6	  O2	0.694	49.080	-83.136	O.2	1	RES1	0.000	
7	  C3	3.640	50.454	-80.833	C.3	1	RES1	0.000	
8	  C4	2.127	50.555	-81.005	C.3	1	RES1	0.000	
9	  C5	1.029	50.274	-83.211	C.2	1	RES1	0.000	
10	  C6	0.729	51.129	-84.360	C.2	1	RES1	0.000	
11	  O6	2.312	53.309	-82.195	O.2	1	RES1	0.000	
12	  C7	0.105	50.794	-85.578	C.2	1	RES1	0.000	
13	  O7	0.515	52.024	-79.990	O.2	1	RES1	0.000	
14	  C8	-0.018	51.831	-86.493	C.2	1	RES1	0.000	
15	  C9	0.468	53.154	-86.232	C.2	1	RES1	0.000	
16	 C10	1.085	53.419	-84.991	C.2	1	RES1	0.000	
17	 N10	2.231	51.391	-78.678	N.pl3	1	RES1	0.000	
18	 C43	1.202	52.393	-84.100	C.2	1	RES1	0.000	
19	 C44	1.819	52.343	-82.754	C.2	1	RES1	0.000	
20	 C45	1.548	51.413	-79.885	C.2	1	RES1	0.000	
@<TRIPOS>BOND
1 1 3 2
2 1 4 1
3 1 17 1
4 2 8 1
5 2 9 ar
6 2 19 ar
7 4 7 1
8 6 9 2
9 7 8 1
10 8 20 1
11 9 10 ar
12 10 12 ar
13 12 14 ar
14 14 15 ar
15 5 16 1
16 15 16 ar
17 16 18 ar
18 17 20 1
19 10 18 ar
20 18 19 ar
21 11 19 2
22 13 20 2
@<TRIPOS>SUBSTRUCTURE
1	RES1	1	GROUP	1 ****	RES
