# created with PyMOL 2.5.2
@<TRIPOS>MOLECULE
TRKA_6H0G_E3ligase
20 22 1                 
SMALL
USER_CHARGES
@<TRIPOS>ATOM
1	  C1	3.370	50.706	-78.349	C.2	1	RES1	0.000	
2	  N1	1.690	51.032	-82.312	N.2	1	RES1	0.000	
3	  O1	3.850	50.765	-77.240	O.2	1	RES1	0.000	
4	  C2	4.034	49.915	-79.478	C.3	1	RES1	0.000	
5	  N2	1.689	54.673	-84.781	N.pl3	1	RES1	0.000	
6	  O2	0.687	49.093	-83.129	O.2	1	RES1	0.000	
7	  C3	3.663	50.472	-80.851	C.3	1	RES1	0.000	
8	  C4	2.162	50.531	-80.971	C.3	1	RES1	0.000	
9	  C5	1.028	50.271	-83.207	C.2	1	RES1	0.000	
10	  C6	0.716	51.122	-84.361	C.2	1	RES1	0.000	
11	  C7	0.057	50.846	-85.553	C.2	1	RES1	0.000	
12	  O7	2.361	53.318	-82.219	O.2	1	RES1	0.000	
13	  C8	-0.062	51.848	-86.479	C.2	1	RES1	0.000	
14	  O8	0.471	51.966	-80.000	O.2	1	RES1	0.000	
15	  C9	0.471	53.143	-86.222	C.2	1	RES1	0.000	
16	 C10	1.104	53.440	-84.994	C.2	1	RES1	0.000	
17	 N10	2.203	51.354	-78.672	N.pl3	1	RES1	0.000	
18	 C45	1.251	52.363	-84.103	C.2	1	RES1	0.000	
19	 C46	1.845	52.345	-82.770	C.2	1	RES1	0.000	
20	 C47	1.533	51.389	-79.875	C.2	1	RES1	0.000	
@<TRIPOS>BOND
1 1 3 2
2 1 4 1
3 1 17 1
4 2 8 1
5 2 9 ar
6 2 19 ar
7 4 7 1
8 6 9 2
9 7 8 1
10 8 20 1
11 9 10 ar
12 10 11 ar
13 11 13 ar
14 13 15 ar
15 5 16 1
16 15 16 ar
17 16 18 ar
18 17 20 1
19 10 18 ar
20 18 19 ar
21 12 19 2
22 14 20 2
@<TRIPOS>SUBSTRUCTURE
1	RES1	1	GROUP	1 ****	RES
