# created with PyMOL 2.5.2
@<TRIPOS>MOLECULE
BRD4_7BQU_E3ligase
19 21 1                 
SMALL
USER_CHARGES
@<TRIPOS>ATOM
1	  O4	27.395	17.196	11.988	O.2	1	RES1	0.000	
2	  O5	26.401	20.333	17.879	O.2	1	RES1	0.000	
3	  N6	25.395	17.673	13.163	N.2	1	RES1	0.000	
4	  O6	23.713	19.590	14.281	O.2	1	RES1	0.000	
5	  N7	25.091	19.902	16.081	N.pl3	1	RES1	0.000	
6	  O7	23.101	17.680	13.639	O.2	1	RES1	0.000	
7	 C20	25.558	15.505	10.249	C.2	1	RES1	0.000	
8	 C21	24.492	14.853	9.652	C.2	1	RES1	0.000	
9	 C22	23.183	14.987	10.151	C.2	1	RES1	0.000	
10	 C23	22.918	15.795	11.263	C.2	1	RES1	0.000	
11	 C24	24.032	16.440	11.829	C.2	1	RES1	0.000	
12	 C25	25.284	16.301	11.357	C.2	1	RES1	0.000	
13	 C26	26.187	17.107	12.196	C.2	1	RES1	0.000	
14	 C27	25.902	18.617	14.146	C.3	1	RES1	0.000	
15	 C28	26.833	17.956	15.196	C.3	1	RES1	0.000	
16	 C29	27.361	19.018	16.135	C.3	1	RES1	0.000	
17	 C30	26.270	19.796	16.802	C.2	1	RES1	0.000	
18	 C31	24.806	19.382	14.826	C.2	1	RES1	0.000	
19	 C32	24.074	17.320	13.006	C.2	1	RES1	0.000	
@<TRIPOS>BOND
1 7 8 ar
2 7 12 ar
3 8 9 ar
4 9 10 ar
5 10 11 ar
6 11 12 ar
7 11 19 ar
8 12 13 ar
9 1 13 2
10 3 13 ar
11 3 14 1
12 14 15 1
13 14 18 1
14 15 16 1
15 16 17 1
16 2 17 2
17 5 17 1
18 4 18 2
19 5 18 1
20 3 19 ar
21 6 19 2
@<TRIPOS>SUBSTRUCTURE
1	RES1	1	GROUP	1 ****	RES
