# created with PyMOL 2.5.2
@<TRIPOS>MOLECULE
TRKA_6H0G_E3ligase
20 22 1                 
SMALL
USER_CHARGES
@<TRIPOS>ATOM
1	  C1	3.379	50.708	-78.358	C.2	1	RES1	0.000	
2	  N1	1.725	51.045	-82.312	N.2	1	RES1	0.000	
3	  O1	3.872	50.726	-77.225	O.2	1	RES1	0.000	
4	  C2	3.993	49.889	-79.476	C.3	1	RES1	0.000	
5	  N2	1.669	54.677	-84.739	N.pl3	1	RES1	0.000	
6	  O2	0.711	49.075	-83.141	O.2	1	RES1	0.000	
7	  C3	3.654	50.439	-80.844	C.3	1	RES1	0.000	
8	  C4	2.140	50.566	-81.005	C.3	1	RES1	0.000	
9	  C5	1.026	50.269	-83.213	C.2	1	RES1	0.000	
10	  C6	0.731	51.126	-84.372	C.2	1	RES1	0.000	
11	  C7	0.090	50.844	-85.561	C.2	1	RES1	0.000	
12	  C8	-0.031	51.855	-86.484	C.2	1	RES1	0.000	
13	  O8	2.315	53.323	-82.224	O.2	1	RES1	0.000	
14	  C9	0.452	53.115	-86.215	C.2	1	RES1	0.000	
15	  O9	0.496	52.041	-79.997	O.2	1	RES1	0.000	
16	 C10	1.085	53.405	-84.992	C.2	1	RES1	0.000	
17	 N10	2.216	51.357	-78.680	N.pl3	1	RES1	0.000	
18	 C47	1.224	52.360	-84.081	C.2	1	RES1	0.000	
19	 C48	1.833	52.351	-82.762	C.2	1	RES1	0.000	
20	 C49	1.544	51.423	-79.882	C.2	1	RES1	0.000	
@<TRIPOS>BOND
1 1 3 2
2 1 4 1
3 1 17 1
4 2 8 1
5 2 9 ar
6 2 19 ar
7 4 7 1
8 6 9 2
9 7 8 1
10 8 20 1
11 9 10 ar
12 10 11 ar
13 11 12 ar
14 12 14 ar
15 5 16 1
16 14 16 ar
17 16 18 ar
18 17 20 1
19 10 18 ar
20 18 19 ar
21 13 19 2
22 15 20 2
@<TRIPOS>SUBSTRUCTURE
1	RES1	1	GROUP	1 ****	RES
