# created with PyMOL 2.5.2
@<TRIPOS>MOLECULE
SIRT2_6H0G_E3ligase
20 22 1                 
SMALL
USER_CHARGES
@<TRIPOS>ATOM
1	  N3	1.974	54.455	-85.601	N.pl3	1	RES1	0.000	
2	  N4	1.735	51.813	-82.092	N.2	1	RES1	0.000	
3	  O4	2.798	53.752	-82.836	O.2	1	RES1	0.000	
4	  N5	2.001	50.069	-78.871	N.pl3	1	RES1	0.000	
5	  O5	3.692	49.649	-77.450	O.2	1	RES1	0.000	
6	  O6	0.169	50.457	-80.210	O.2	1	RES1	0.000	
7	  O7	0.441	49.828	-82.261	O.2	1	RES1	0.000	
8	 C26	1.330	53.186	-85.441	C.2	1	RES1	0.000	
9	 C27	0.529	52.664	-86.469	C.2	1	RES1	0.000	
10	 C28	-0.171	51.448	-86.274	C.2	1	RES1	0.000	
11	 C29	-0.105	50.766	-85.072	C.2	1	RES1	0.000	
12	 C30	0.660	51.329	-84.062	C.2	1	RES1	0.000	
13	 C31	1.364	52.512	-84.214	C.2	1	RES1	0.000	
14	 C32	2.052	52.806	-82.989	C.2	1	RES1	0.000	
15	 C33	2.230	51.665	-80.746	C.3	1	RES1	0.000	
16	 C34	3.704	51.268	-80.670	C.3	1	RES1	0.000	
17	 C35	4.158	51.192	-79.218	C.3	1	RES1	0.000	
18	 C36	3.287	50.211	-78.437	C.2	1	RES1	0.000	
19	 C37	1.375	50.668	-79.952	C.2	1	RES1	0.000	
20	 C38	0.902	50.856	-82.699	C.2	1	RES1	0.000	
@<TRIPOS>BOND
1 1 8 1
2 8 9 ar
3 8 13 ar
4 9 10 ar
5 10 11 ar
6 11 12 ar
7 12 13 ar
8 12 20 ar
9 13 14 ar
10 2 14 ar
11 3 14 2
12 2 15 1
13 15 16 1
14 15 19 1
15 16 17 1
16 17 18 1
17 4 18 1
18 5 18 2
19 4 19 1
20 6 19 2
21 2 20 ar
22 7 20 2
@<TRIPOS>SUBSTRUCTURE
1	RES1	1	GROUP	1 ****	RES
