# created with PyMOL 2.5.2
@<TRIPOS>MOLECULE
SIRT2_6H0G_E3ligase
20 22 1                 
SMALL
USER_CHARGES
@<TRIPOS>ATOM
1	  N3	1.967	54.435	-85.616	N.pl3	1	RES1	0.000	
2	  N4	1.724	51.803	-82.102	N.2	1	RES1	0.000	
3	  N5	1.978	50.072	-78.874	N.pl3	1	RES1	0.000	
4	  O6	2.792	53.765	-82.841	O.2	1	RES1	0.000	
5	  O7	3.694	49.659	-77.420	O.2	1	RES1	0.000	
6	  O8	0.186	50.453	-80.212	O.2	1	RES1	0.000	
7	  O9	0.447	49.837	-82.226	O.2	1	RES1	0.000	
8	 C30	1.333	53.220	-85.444	C.2	1	RES1	0.000	
9	 C31	0.521	52.673	-86.465	C.2	1	RES1	0.000	
10	 C32	-0.190	51.477	-86.291	C.2	1	RES1	0.000	
11	 C33	-0.102	50.766	-85.077	C.2	1	RES1	0.000	
12	 C34	0.679	51.324	-84.061	C.2	1	RES1	0.000	
13	 C35	1.344	52.492	-84.226	C.2	1	RES1	0.000	
14	 C36	2.074	52.817	-82.994	C.2	1	RES1	0.000	
15	 C37	2.236	51.659	-80.726	C.3	1	RES1	0.000	
16	 C38	3.698	51.254	-80.665	C.3	1	RES1	0.000	
17	 C39	4.163	51.164	-79.222	C.3	1	RES1	0.000	
18	 C40	3.288	50.219	-78.443	C.2	1	RES1	0.000	
19	 C41	1.374	50.660	-79.954	C.2	1	RES1	0.000	
20	 C42	0.917	50.844	-82.706	C.2	1	RES1	0.000	
@<TRIPOS>BOND
1 1 8 1
2 2 20 ar
3 8 9 ar
4 8 13 ar
5 9 10 ar
6 10 11 ar
7 11 12 ar
8 12 13 ar
9 12 20 ar
10 13 14 ar
11 2 14 ar
12 4 14 2
13 2 15 1
14 15 16 1
15 15 19 1
16 16 17 1
17 17 18 1
18 3 18 1
19 5 18 2
20 3 19 1
21 6 19 2
22 7 20 2
@<TRIPOS>SUBSTRUCTURE
1	RES1	1	GROUP	1 ****	RES
