# created with PyMOL 2.5.2
@<TRIPOS>MOLECULE
SHP2_6H0G_E3ligase
20 22 1                 
SMALL
USER_CHARGES
@<TRIPOS>ATOM
1	  N3	1.966	54.446	-85.590	N.pl3	1	RES1	0.000	
2	  O3	2.803	53.754	-82.840	O.2	1	RES1	0.000	
3	  N4	1.724	51.775	-82.107	N.2	1	RES1	0.000	
4	  O4	3.686	49.692	-77.409	O.2	1	RES1	0.000	
5	  N5	2.018	50.083	-78.857	N.pl3	1	RES1	0.000	
6	  O5	0.195	50.461	-80.171	O.2	1	RES1	0.000	
7	  O6	0.427	49.806	-82.275	O.2	1	RES1	0.000	
8	 C12	1.325	53.206	-85.449	C.2	1	RES1	0.000	
9	 C13	0.530	52.673	-86.451	C.2	1	RES1	0.000	
10	 C14	-0.184	51.490	-86.309	C.2	1	RES1	0.000	
11	 C15	-0.118	50.785	-85.082	C.2	1	RES1	0.000	
12	 C16	0.674	51.324	-84.077	C.2	1	RES1	0.000	
13	 C17	1.356	52.504	-84.243	C.2	1	RES1	0.000	
14	 C18	2.067	52.786	-82.989	C.2	1	RES1	0.000	
15	 C19	2.240	51.631	-80.748	C.3	1	RES1	0.000	
16	 C20	3.692	51.229	-80.684	C.3	1	RES1	0.000	
17	 C21	4.160	51.185	-79.210	C.3	1	RES1	0.000	
18	 C22	3.281	50.245	-78.407	C.2	1	RES1	0.000	
19	 C23	1.381	50.681	-79.942	C.2	1	RES1	0.000	
20	 C24	0.903	50.836	-82.723	C.2	1	RES1	0.000	
@<TRIPOS>BOND
1 1 8 1
2 8 9 ar
3 8 13 ar
4 9 10 ar
5 10 11 ar
6 11 12 ar
7 12 13 ar
8 12 20 ar
9 13 14 ar
10 2 14 2
11 3 14 ar
12 3 15 1
13 15 16 1
14 15 19 1
15 16 17 1
16 17 18 1
17 4 18 2
18 5 18 1
19 5 19 1
20 6 19 2
21 3 20 ar
22 7 20 2
@<TRIPOS>SUBSTRUCTURE
1	RES1	1	GROUP	1 ****	RES
