# created with PyMOL 2.5.2
@<TRIPOS>MOLECULE
SHP2_6H0G_E3ligase
20 22 1                 
SMALL
USER_CHARGES
@<TRIPOS>ATOM
1	  N3	1.968	54.447	-85.613	N.pl3	1	RES1	0.000	
2	  N4	1.724	51.805	-82.096	N.2	1	RES1	0.000	
3	  O4	2.798	53.780	-82.853	O.2	1	RES1	0.000	
4	  N5	1.997	50.059	-78.885	N.pl3	1	RES1	0.000	
5	  O5	3.683	49.654	-77.425	O.3	1	RES1	0.000	
6	  O6	0.232	50.453	-80.212	O.2	1	RES1	0.000	
7	  O7	0.447	49.820	-82.246	O.2	1	RES1	0.000	
8	 C14	1.329	53.211	-85.439	C.2	1	RES1	0.000	
9	 C15	0.535	52.648	-86.461	C.2	1	RES1	0.000	
10	 C16	-0.161	51.468	-86.285	C.2	1	RES1	0.000	
11	 C17	-0.108	50.775	-85.050	C.2	1	RES1	0.000	
12	 C18	0.657	51.334	-84.064	C.2	1	RES1	0.000	
13	 C19	1.337	52.483	-84.235	C.2	1	RES1	0.000	
14	 C20	2.058	52.815	-82.994	C.2	1	RES1	0.000	
15	 C21	2.221	51.660	-80.741	C.3	1	RES1	0.000	
16	 C22	3.705	51.258	-80.672	C.3	1	RES1	0.000	
17	 C23	4.138	51.199	-79.213	C.3	1	RES1	0.000	
18	 C24	3.287	50.202	-78.414	C.3	1	RES1	0.000	
19	 C25	1.381	50.660	-79.959	C.2	1	RES1	0.000	
20	 C26	0.897	50.862	-82.708	C.2	1	RES1	0.000	
@<TRIPOS>BOND
1 1 8 1
2 8 9 ar
3 8 13 ar
4 9 10 ar
5 10 11 ar
6 11 12 ar
7 12 13 ar
8 12 20 ar
9 13 14 ar
10 2 14 ar
11 3 14 2
12 2 15 1
13 15 16 1
14 15 19 1
15 16 17 1
16 17 18 1
17 4 18 1
18 5 18 1
19 4 19 1
20 6 19 2
21 2 20 ar
22 7 20 2
@<TRIPOS>SUBSTRUCTURE
1	RES1	1	GROUP	1 ****	RES
