# created with PyMOL 2.5.2
@<TRIPOS>MOLECULE
SHP2_6H0G_E3ligase
20 22 1                 
SMALL
USER_CHARGES
@<TRIPOS>ATOM
1	  N3	1.989	54.434	-85.609	N.pl3	1	RES1	0.000	
2	  N4	1.736	51.821	-82.109	N.2	1	RES1	0.000	
3	  N5	2.003	50.028	-78.906	N.pl3	1	RES1	0.000	
4	  O5	2.799	53.756	-82.855	O.2	1	RES1	0.000	
5	  O6	3.692	49.641	-77.437	O.3	1	RES1	0.000	
6	  O7	0.224	50.405	-80.255	O.2	1	RES1	0.000	
7	  O8	0.414	49.863	-82.220	O.2	1	RES1	0.000	
8	 C16	1.336	53.186	-85.477	C.2	1	RES1	0.000	
9	 C17	0.535	52.655	-86.438	C.2	1	RES1	0.000	
10	 C18	-0.178	51.447	-86.276	C.2	1	RES1	0.000	
11	 C19	-0.128	50.772	-85.062	C.2	1	RES1	0.000	
12	 C20	0.653	51.332	-84.052	C.2	1	RES1	0.000	
13	 C21	1.347	52.511	-84.237	C.2	1	RES1	0.000	
14	 C22	2.060	52.821	-82.986	C.2	1	RES1	0.000	
15	 C23	2.219	51.681	-80.747	C.3	1	RES1	0.000	
16	 C24	3.705	51.303	-80.663	C.3	1	RES1	0.000	
17	 C25	4.140	51.209	-79.178	C.3	1	RES1	0.000	
18	 C26	3.274	50.222	-78.416	C.3	1	RES1	0.000	
19	 C27	1.379	50.634	-79.958	C.2	1	RES1	0.000	
20	 C28	0.925	50.872	-82.686	C.2	1	RES1	0.000	
@<TRIPOS>BOND
1 1 8 1
2 8 9 ar
3 8 13 ar
4 9 10 ar
5 10 11 ar
6 11 12 ar
7 12 13 ar
8 12 20 ar
9 13 14 ar
10 2 14 ar
11 4 14 2
12 2 15 1
13 15 16 1
14 15 19 1
15 16 17 1
16 17 18 1
17 3 18 1
18 5 18 1
19 3 19 1
20 6 19 2
21 2 20 ar
22 7 20 2
@<TRIPOS>SUBSTRUCTURE
1	RES1	1	GROUP	1 ****	RES
