# created with PyMOL 2.5.2
@<TRIPOS>MOLECULE
SHP2_6H0G_E3ligase
20 22 1                 
SMALL
USER_CHARGES
@<TRIPOS>ATOM
1	  N3	1.947	54.466	-85.583	N.pl3	1	RES1	0.000	
2	  N4	1.717	51.783	-82.121	N.2	1	RES1	0.000	
3	  N5	1.998	50.089	-78.834	N.pl3	1	RES1	0.000	
4	  O6	2.803	53.749	-82.824	O.2	1	RES1	0.000	
5	  O7	3.686	49.675	-77.397	O.3	1	RES1	0.000	
6	  O8	0.186	50.502	-80.166	O.2	1	RES1	0.000	
7	  O9	0.450	49.795	-82.253	O.2	1	RES1	0.000	
8	 C18	1.338	53.210	-85.441	C.2	1	RES1	0.000	
9	 C19	0.523	52.682	-86.459	C.2	1	RES1	0.000	
10	 C20	-0.188	51.461	-86.303	C.2	1	RES1	0.000	
11	 C21	-0.091	50.782	-85.083	C.2	1	RES1	0.000	
12	 C22	0.673	51.335	-84.073	C.2	1	RES1	0.000	
13	 C23	1.360	52.504	-84.259	C.2	1	RES1	0.000	
14	 C24	2.055	52.776	-82.998	C.2	1	RES1	0.000	
15	 C25	2.236	51.639	-80.757	C.3	1	RES1	0.000	
16	 C26	3.717	51.225	-80.697	C.3	1	RES1	0.000	
17	 C27	4.167	51.163	-79.244	C.3	1	RES1	0.000	
18	 C28	3.291	50.235	-78.417	C.3	1	RES1	0.000	
19	 C29	1.361	50.690	-79.937	C.2	1	RES1	0.000	
20	 C30	0.898	50.832	-82.722	C.2	1	RES1	0.000	
@<TRIPOS>BOND
1 1 8 1
2 8 9 ar
3 8 13 ar
4 9 10 ar
5 10 11 ar
6 11 12 ar
7 12 13 ar
8 12 20 ar
9 13 14 ar
10 2 14 ar
11 4 14 2
12 2 15 1
13 15 16 1
14 15 19 1
15 16 17 1
16 17 18 1
17 3 18 1
18 5 18 1
19 3 19 1
20 6 19 2
21 2 20 ar
22 7 20 2
@<TRIPOS>SUBSTRUCTURE
1	RES1	1	GROUP	1 ****	RES
