# created with PyMOL 2.5.2
@<TRIPOS>MOLECULE
GSK_7BQU_E3ligase
19 21 1                 
SMALL
USER_CHARGES
@<TRIPOS>ATOM
1	  N3	25.403	17.665	13.152	N.2	1	RES1	0.000	
2	  N4	25.084	19.895	16.076	N.pl3	1	RES1	0.000	
3	  O5	27.381	17.217	11.979	O.2	1	RES1	0.000	
4	  O6	26.397	20.324	17.887	O.2	1	RES1	0.000	
5	  O7	23.722	19.587	14.340	O.2	1	RES1	0.000	
6	  O8	23.063	17.699	13.606	O.2	1	RES1	0.000	
7	 C10	25.578	15.509	10.259	C.2	1	RES1	0.000	
8	 C11	24.498	14.840	9.654	C.2	1	RES1	0.000	
9	 C12	23.185	14.984	10.157	C.2	1	RES1	0.000	
10	 C13	22.936	15.792	11.264	C.2	1	RES1	0.000	
11	 C14	24.017	16.433	11.851	C.2	1	RES1	0.000	
12	 C15	25.273	16.286	11.366	C.2	1	RES1	0.000	
13	 C16	26.187	17.092	12.180	C.2	1	RES1	0.000	
14	 C17	25.917	18.637	14.156	C.3	1	RES1	0.000	
15	 C18	26.836	17.947	15.175	C.3	1	RES1	0.000	
16	 C19	27.394	19.045	16.126	C.3	1	RES1	0.000	
17	 C20	26.269	19.805	16.794	C.2	1	RES1	0.000	
18	 C21	24.793	19.369	14.839	C.2	1	RES1	0.000	
19	 C22	24.059	17.328	12.979	C.2	1	RES1	0.000	
@<TRIPOS>BOND
1 7 8 ar
2 7 12 ar
3 8 9 ar
4 9 10 ar
5 10 11 ar
6 11 12 ar
7 11 19 ar
8 12 13 ar
9 1 13 ar
10 3 13 2
11 1 14 1
12 14 15 1
13 14 18 1
14 15 16 1
15 16 17 1
16 2 17 1
17 4 17 2
18 2 18 1
19 5 18 2
20 1 19 ar
21 6 19 2
@<TRIPOS>SUBSTRUCTURE
1	RES1	1	GROUP	1 ****	RES
