# created with PyMOL 2.5.2
@<TRIPOS>MOLECULE
GSK_7BQU_E3ligase
19 21 1                 
SMALL
USER_CHARGES
@<TRIPOS>ATOM
1	  N3	25.413	17.688	13.155	N.2	1	RES1	0.000	
2	  N4	25.080	19.885	16.076	N.pl3	1	RES1	0.000	
3	  O5	27.396	17.210	11.966	O.2	1	RES1	0.000	
4	  O6	26.357	20.313	17.905	O.2	1	RES1	0.000	
5	  O7	23.726	19.581	14.294	O.2	1	RES1	0.000	
6	  O8	23.106	17.721	13.652	O.2	1	RES1	0.000	
7	 C11	25.550	15.495	10.233	C.2	1	RES1	0.000	
8	 C12	24.477	14.843	9.638	C.2	1	RES1	0.000	
9	 C13	23.182	14.974	10.166	C.2	1	RES1	0.000	
10	 C14	22.945	15.779	11.262	C.2	1	RES1	0.000	
11	 C15	24.016	16.439	11.860	C.2	1	RES1	0.000	
12	 C16	25.268	16.292	11.351	C.2	1	RES1	0.000	
13	 C17	26.190	17.111	12.181	C.2	1	RES1	0.000	
14	 C18	25.936	18.621	14.152	C.3	1	RES1	0.000	
15	 C19	26.841	17.964	15.192	C.3	1	RES1	0.000	
16	 C20	27.372	19.015	16.141	C.3	1	RES1	0.000	
17	 C21	26.243	19.785	16.794	C.2	1	RES1	0.000	
18	 C22	24.811	19.390	14.820	C.2	1	RES1	0.000	
19	 C23	24.085	17.346	13.000	C.2	1	RES1	0.000	
@<TRIPOS>BOND
1 7 8 ar
2 7 12 ar
3 8 9 ar
4 9 10 ar
5 10 11 ar
6 11 12 ar
7 11 19 ar
8 12 13 ar
9 1 13 ar
10 3 13 2
11 1 14 1
12 14 15 1
13 14 18 1
14 15 16 1
15 16 17 1
16 2 17 1
17 4 17 2
18 2 18 1
19 5 18 2
20 1 19 ar
21 6 19 2
@<TRIPOS>SUBSTRUCTURE
1	RES1	1	GROUP	1 ****	RES
