# created with PyMOL 2.5.2
@<TRIPOS>MOLECULE
GSK_7BQU_E3ligase
19 21 1                 
SMALL
USER_CHARGES
@<TRIPOS>ATOM
1	  N3	25.418	17.712	13.146	N.2	1	RES1	0.000	
2	  N4	25.085	19.878	16.076	N.pl3	1	RES1	0.000	
3	  O5	27.385	17.220	11.938	O.2	1	RES1	0.000	
4	  O6	26.340	20.277	17.897	O.2	1	RES1	0.000	
5	  O7	23.748	19.595	14.246	O.2	1	RES1	0.000	
6	  O8	23.106	17.702	13.646	O.2	1	RES1	0.000	
7	 C13	25.555	15.522	10.234	C.2	1	RES1	0.000	
8	 C14	24.467	14.835	9.665	C.2	1	RES1	0.000	
9	 C15	23.184	14.970	10.184	C.2	1	RES1	0.000	
10	 C16	22.932	15.791	11.308	C.2	1	RES1	0.000	
11	 C17	24.023	16.454	11.857	C.2	1	RES1	0.000	
12	 C18	25.283	16.302	11.365	C.2	1	RES1	0.000	
13	 C19	26.182	17.121	12.155	C.2	1	RES1	0.000	
14	 C20	25.946	18.617	14.132	C.3	1	RES1	0.000	
15	 C21	26.862	17.972	15.198	C.3	1	RES1	0.000	
16	 C22	27.366	19.011	16.167	C.3	1	RES1	0.000	
17	 C23	26.215	19.775	16.811	C.2	1	RES1	0.000	
18	 C24	24.808	19.375	14.817	C.2	1	RES1	0.000	
19	 C25	24.089	17.326	12.997	C.2	1	RES1	0.000	
@<TRIPOS>BOND
1 7 8 ar
2 7 12 ar
3 8 9 ar
4 9 10 ar
5 10 11 ar
6 11 12 ar
7 11 19 ar
8 12 13 ar
9 1 13 ar
10 3 13 2
11 1 14 1
12 14 15 1
13 14 18 1
14 15 16 1
15 16 17 1
16 2 17 1
17 4 17 2
18 2 18 1
19 5 18 2
20 1 19 ar
21 6 19 2
@<TRIPOS>SUBSTRUCTURE
1	RES1	1	GROUP	1 ****	RES
