# created with PyMOL 2.5.2
@<TRIPOS>MOLECULE
BRD4_7BQU_E3ligase
19 21 1                 
SMALL
USER_CHARGES
@<TRIPOS>ATOM
1	  O5	27.411	17.208	11.940	O.2	1	RES1	0.000	
2	  N6	25.417	17.700	13.149	N.2	1	RES1	0.000	
3	  O6	26.350	20.304	17.908	O.2	1	RES1	0.000	
4	  N7	25.076	19.903	16.065	N.pl3	1	RES1	0.000	
5	  O7	23.763	19.644	14.256	O.2	1	RES1	0.000	
6	  O8	23.106	17.677	13.666	O.2	1	RES1	0.000	
7	 C22	25.556	15.507	10.231	C.2	1	RES1	0.000	
8	 C23	24.467	14.828	9.665	C.2	1	RES1	0.000	
9	 C24	23.174	14.973	10.174	C.2	1	RES1	0.000	
10	 C25	22.933	15.787	11.305	C.2	1	RES1	0.000	
11	 C26	24.018	16.439	11.846	C.2	1	RES1	0.000	
12	 C27	25.286	16.311	11.346	C.2	1	RES1	0.000	
13	 C28	26.178	17.117	12.153	C.2	1	RES1	0.000	
14	 C29	25.953	18.617	14.150	C.3	1	RES1	0.000	
15	 C30	26.857	17.942	15.173	C.3	1	RES1	0.000	
16	 C31	27.355	18.984	16.178	C.3	1	RES1	0.000	
17	 C32	26.213	19.771	16.809	C.2	1	RES1	0.000	
18	 C33	24.788	19.398	14.820	C.2	1	RES1	0.000	
19	 C34	24.093	17.344	13.003	C.2	1	RES1	0.000	
@<TRIPOS>BOND
1 7 8 ar
2 7 12 ar
3 8 9 ar
4 9 10 ar
5 10 11 ar
6 11 12 ar
7 11 19 ar
8 12 13 ar
9 1 13 2
10 2 13 ar
11 2 14 1
12 14 15 1
13 14 18 1
14 15 16 1
15 16 17 1
16 3 17 2
17 4 17 1
18 4 18 1
19 5 18 2
20 2 19 ar
21 6 19 2
@<TRIPOS>SUBSTRUCTURE
1	RES1	1	GROUP	1 ****	RES
