# created with PyMOL 2.5.2
@<TRIPOS>MOLECULE
BRD9_6H0G_E3ligase
20 22 1                 
SMALL
USER_CHARGES
@<TRIPOS>ATOM
1	  N6	1.994	54.434	-85.599	N.pl3	1	RES1	0.000	
2	  N7	1.731	51.806	-82.090	N.2	1	RES1	0.000	
3	  N8	1.988	50.060	-78.886	N.pl3	1	RES1	0.000	
4	  O9	2.799	53.778	-82.856	O.2	1	RES1	0.000	
5	 O10	3.680	49.652	-77.439	O.3	1	RES1	0.000	
6	 O11	0.217	50.413	-80.230	O.2	1	RES1	0.000	
7	 O12	0.457	49.838	-82.228	O.2	1	RES1	0.000	
8	 C33	1.337	53.215	-85.435	C.2	1	RES1	0.000	
9	 C34	0.508	52.663	-86.459	C.2	1	RES1	0.000	
10	 C35	-0.185	51.445	-86.284	C.2	1	RES1	0.000	
11	 C36	-0.121	50.775	-85.070	C.2	1	RES1	0.000	
12	 C37	0.649	51.334	-84.061	C.2	1	RES1	0.000	
13	 C38	1.375	52.501	-84.241	C.2	1	RES1	0.000	
14	 C39	2.060	52.813	-83.011	C.2	1	RES1	0.000	
15	 C40	2.230	51.665	-80.738	C.3	1	RES1	0.000	
16	 C41	3.684	51.267	-80.643	C.3	1	RES1	0.000	
17	 C42	4.151	51.180	-79.208	C.3	1	RES1	0.000	
18	 C43	3.274	50.226	-78.437	C.3	1	RES1	0.000	
19	 C44	1.388	50.654	-79.970	C.2	1	RES1	0.000	
20	 C45	0.910	50.874	-82.681	C.2	1	RES1	0.000	
@<TRIPOS>BOND
1 5 18 1
2 6 19 2
3 7 20 2
4 1 8 1
5 8 9 ar
6 8 13 ar
7 9 10 ar
8 10 11 ar
9 11 12 ar
10 12 13 ar
11 12 20 ar
12 13 14 ar
13 2 14 ar
14 4 14 2
15 2 15 1
16 15 16 1
17 15 19 1
18 16 17 1
19 17 18 1
20 3 18 1
21 3 19 1
22 2 20 ar
@<TRIPOS>SUBSTRUCTURE
1	RES1	1	GROUP	1 ****	RES
