# created with PyMOL 2.5.2
@<TRIPOS>MOLECULE
GSK_7BQU_E3ligase
19 21 1                 
SMALL
USER_CHARGES
@<TRIPOS>ATOM
1	  N2	25.421	17.673	13.143	N.2	1	RES1	0.000	
2	  N3	25.080	19.930	16.064	N.pl3	1	RES1	0.000	
3	  O3	23.126	17.667	13.669	O.2	1	RES1	0.000	
4	  O4	26.328	20.311	17.898	O.2	1	RES1	0.000	
5	  O5	23.782	19.676	14.215	O.2	1	RES1	0.000	
6	  O6	27.398	17.211	11.906	O.2	1	RES1	0.000	
7	  C8	24.449	14.849	9.646	C.2	1	RES1	0.000	
8	  C9	23.181	14.986	10.171	C.2	1	RES1	0.000	
9	 C10	22.927	15.772	11.291	C.2	1	RES1	0.000	
10	 C11	24.034	16.429	11.887	C.2	1	RES1	0.000	
11	 C12	24.098	17.335	13.023	C.2	1	RES1	0.000	
12	 C13	25.964	18.605	14.155	C.3	1	RES1	0.000	
13	 C14	26.822	17.930	15.233	C.3	1	RES1	0.000	
14	 C15	27.347	18.972	16.194	C.3	1	RES1	0.000	
15	 C16	26.211	19.759	16.820	C.2	1	RES1	0.000	
16	 C17	24.829	19.407	14.800	C.2	1	RES1	0.000	
17	 C18	26.170	17.124	12.147	C.2	1	RES1	0.000	
18	 C19	25.285	16.294	11.345	C.2	1	RES1	0.000	
19	 C20	25.538	15.521	10.232	C.2	1	RES1	0.000	
@<TRIPOS>BOND
1 7 8 ar
2 8 9 ar
3 9 10 ar
4 10 11 ar
5 10 18 ar
6 1 11 ar
7 3 11 2
8 1 12 1
9 12 13 1
10 12 16 1
11 13 14 1
12 14 15 1
13 2 15 1
14 4 15 2
15 2 16 1
16 5 16 2
17 1 17 ar
18 6 17 2
19 17 18 ar
20 18 19 ar
21 7 19 ar
@<TRIPOS>SUBSTRUCTURE
1	RES1	1	GROUP	1 ****	RES
