# created with PyMOL 2.5.2
@<TRIPOS>MOLECULE
GSK_7BQU_E3ligase
19 21 1                 
SMALL
USER_CHARGES
@<TRIPOS>ATOM
1	  N2	25.414	17.711	13.122	N.2	1	RES1	0.000	
2	  N3	25.075	19.875	16.065	N.pl3	1	RES1	0.000	
3	  O3	23.085	17.688	13.658	O.2	1	RES1	0.000	
4	  O4	26.339	20.280	17.903	O.2	1	RES1	0.000	
5	  O5	23.750	19.622	14.241	O.2	1	RES1	0.000	
6	  O6	27.387	17.246	11.944	O.2	1	RES1	0.000	
7	 C10	24.471	14.833	9.673	C.2	1	RES1	0.000	
8	 C11	23.173	14.962	10.180	C.2	1	RES1	0.000	
9	 C12	22.949	15.786	11.319	C.2	1	RES1	0.000	
10	 C13	24.026	16.428	11.852	C.2	1	RES1	0.000	
11	 C14	24.100	17.340	12.999	C.2	1	RES1	0.000	
12	 C15	25.959	18.641	14.131	C.3	1	RES1	0.000	
13	 C16	26.845	17.945	15.190	C.3	1	RES1	0.000	
14	 C17	27.360	19.010	16.159	C.3	1	RES1	0.000	
15	 C18	26.236	19.763	16.822	C.2	1	RES1	0.000	
16	 C19	24.807	19.374	14.821	C.2	1	RES1	0.000	
17	 C20	26.183	17.118	12.161	C.2	1	RES1	0.000	
18	 C21	25.276	16.306	11.362	C.2	1	RES1	0.000	
19	 C22	25.559	15.525	10.236	C.2	1	RES1	0.000	
@<TRIPOS>BOND
1 1 17 ar
2 7 8 ar
3 7 19 ar
4 8 9 ar
5 9 10 ar
6 10 11 ar
7 10 18 ar
8 1 11 ar
9 3 11 2
10 1 12 1
11 12 13 1
12 12 16 1
13 13 14 1
14 14 15 1
15 2 15 1
16 4 15 2
17 2 16 1
18 5 16 2
19 6 17 2
20 17 18 ar
21 18 19 ar
@<TRIPOS>SUBSTRUCTURE
1	RES1	1	GROUP	1 ****	RES
