# created with PyMOL 2.5.2
@<TRIPOS>MOLECULE
GSK_7BQU_E3ligase
19 21 1                 
SMALL
USER_CHARGES
@<TRIPOS>ATOM
1	  N2	25.418	17.672	13.156	N.2	1	RES1	0.000	
2	  N3	25.087	19.912	16.068	N.pl3	1	RES1	0.000	
3	  O4	23.107	17.660	13.659	O.2	1	RES1	0.000	
4	  O5	26.336	20.314	17.880	O.2	1	RES1	0.000	
5	  O6	23.776	19.653	14.238	O.2	1	RES1	0.000	
6	  O7	27.386	17.232	11.933	O.2	1	RES1	0.000	
7	  C9	24.459	14.855	9.648	C.2	1	RES1	0.000	
8	 C10	23.165	14.977	10.168	C.2	1	RES1	0.000	
9	 C11	22.927	15.775	11.299	C.2	1	RES1	0.000	
10	 C12	24.031	16.433	11.844	C.2	1	RES1	0.000	
11	 C13	24.096	17.317	13.015	C.2	1	RES1	0.000	
12	 C14	25.958	18.613	14.158	C.3	1	RES1	0.000	
13	 C15	26.803	17.949	15.233	C.3	1	RES1	0.000	
14	 C16	27.348	18.981	16.192	C.3	1	RES1	0.000	
15	 C17	26.237	19.766	16.800	C.2	1	RES1	0.000	
16	 C18	24.835	19.407	14.810	C.2	1	RES1	0.000	
17	 C19	26.180	17.122	12.159	C.2	1	RES1	0.000	
18	 C20	25.291	16.305	11.343	C.2	1	RES1	0.000	
19	 C21	25.555	15.513	10.235	C.2	1	RES1	0.000	
@<TRIPOS>BOND
1 7 8 ar
2 8 9 ar
3 9 10 ar
4 10 11 ar
5 10 18 ar
6 1 11 ar
7 3 11 2
8 1 12 1
9 12 13 1
10 12 16 1
11 13 14 1
12 14 15 1
13 2 15 1
14 4 15 2
15 2 16 1
16 5 16 2
17 1 17 ar
18 6 17 2
19 17 18 ar
20 18 19 ar
21 7 19 ar
@<TRIPOS>SUBSTRUCTURE
1	RES1	1	GROUP	1 ****	RES
