# created with PyMOL 2.5.2
@<TRIPOS>MOLECULE
GSK_7BQU_E3ligase
19 21 1                 
SMALL
USER_CHARGES
@<TRIPOS>ATOM
1	  N2	25.434	17.675	13.133	N.2	1	RES1	0.000	
2	  N3	25.072	19.899	16.053	N.pl3	1	RES1	0.000	
3	  O4	23.127	17.678	13.676	O.2	1	RES1	0.000	
4	  O5	26.318	20.310	17.917	O.2	1	RES1	0.000	
5	  O6	23.771	19.632	14.211	O.2	1	RES1	0.000	
6	  O7	27.404	17.214	11.926	O.2	1	RES1	0.000	
7	 C10	24.443	14.841	9.635	C.2	1	RES1	0.000	
8	 C11	23.165	14.984	10.181	C.2	1	RES1	0.000	
9	 C12	22.928	15.811	11.299	C.2	1	RES1	0.000	
10	 C13	24.013	16.439	11.868	C.2	1	RES1	0.000	
11	 C14	24.116	17.323	13.030	C.2	1	RES1	0.000	
12	 C15	25.963	18.599	14.157	C.3	1	RES1	0.000	
13	 C16	26.841	17.941	15.223	C.3	1	RES1	0.000	
14	 C17	27.346	19.008	16.197	C.3	1	RES1	0.000	
15	 C18	26.199	19.755	16.809	C.2	1	RES1	0.000	
16	 C19	24.827	19.404	14.787	C.2	1	RES1	0.000	
17	 C20	26.202	17.111	12.157	C.2	1	RES1	0.000	
18	 C21	25.285	16.290	11.338	C.2	1	RES1	0.000	
19	 C22	25.538	15.540	10.244	C.2	1	RES1	0.000	
@<TRIPOS>BOND
1 1 17 ar
2 7 8 ar
3 7 19 ar
4 8 9 ar
5 9 10 ar
6 10 11 ar
7 10 18 ar
8 1 11 ar
9 3 11 2
10 1 12 1
11 12 13 1
12 12 16 1
13 13 14 1
14 14 15 1
15 2 15 1
16 4 15 2
17 2 16 1
18 5 16 2
19 6 17 2
20 17 18 ar
21 18 19 ar
@<TRIPOS>SUBSTRUCTURE
1	RES1	1	GROUP	1 ****	RES
