# created with PyMOL 2.5.2
@<TRIPOS>MOLECULE
GSK_7BQU_E3ligase
19 21 1                 
SMALL
USER_CHARGES
@<TRIPOS>ATOM
1	  N2	25.420	17.677	13.154	N.2	1	RES1	0.000	
2	  N3	25.082	19.882	16.062	N.pl3	1	RES1	0.000	
3	  O4	27.387	17.185	11.962	O.2	1	RES1	0.000	
4	  O5	26.343	20.317	17.905	O.2	1	RES1	0.000	
5	  O6	23.730	19.604	14.291	O.2	1	RES1	0.000	
6	  O7	23.108	17.700	13.623	O.2	1	RES1	0.000	
7	 C11	25.557	15.484	10.239	C.2	1	RES1	0.000	
8	 C12	24.465	14.842	9.646	C.2	1	RES1	0.000	
9	 C13	23.171	15.002	10.175	C.2	1	RES1	0.000	
10	 C14	22.937	15.802	11.285	C.2	1	RES1	0.000	
11	 C15	24.023	16.428	11.834	C.2	1	RES1	0.000	
12	 C16	25.289	16.292	11.352	C.2	1	RES1	0.000	
13	 C17	26.181	17.120	12.164	C.2	1	RES1	0.000	
14	 C18	25.932	18.607	14.156	C.3	1	RES1	0.000	
15	 C19	26.863	17.981	15.194	C.3	1	RES1	0.000	
16	 C20	27.368	19.034	16.150	C.3	1	RES1	0.000	
17	 C21	26.251	19.781	16.803	C.2	1	RES1	0.000	
18	 C22	24.798	19.374	14.839	C.2	1	RES1	0.000	
19	 C23	24.088	17.341	13.007	C.2	1	RES1	0.000	
@<TRIPOS>BOND
1 1 19 ar
2 7 8 ar
3 7 12 ar
4 8 9 ar
5 9 10 ar
6 10 11 ar
7 11 12 ar
8 11 19 ar
9 12 13 ar
10 1 13 ar
11 3 13 2
12 1 14 1
13 14 15 1
14 14 18 1
15 15 16 1
16 16 17 1
17 2 17 1
18 4 17 2
19 2 18 1
20 5 18 2
21 6 19 2
@<TRIPOS>SUBSTRUCTURE
1	RES1	1	GROUP	1 ****	RES
