# created with PyMOL 2.5.2
@<TRIPOS>MOLECULE
GSK_7BQU_E3ligase
19 21 1                 
SMALL
USER_CHARGES
@<TRIPOS>ATOM
1	  N2	25.436	17.694	13.132	N.2	1	RES1	0.000	
2	  N3	25.074	19.873	16.067	N.pl3	1	RES1	0.000	
3	  O4	27.398	17.207	11.964	O.2	1	RES1	0.000	
4	  O5	26.334	20.293	17.895	O.2	1	RES1	0.000	
5	  O6	23.736	19.582	14.293	O.2	1	RES1	0.000	
6	  O7	23.117	17.703	13.640	O.2	1	RES1	0.000	
7	 C13	25.552	15.509	10.250	C.2	1	RES1	0.000	
8	 C14	24.474	14.833	9.659	C.2	1	RES1	0.000	
9	 C15	23.169	14.976	10.188	C.2	1	RES1	0.000	
10	 C16	22.912	15.796	11.289	C.2	1	RES1	0.000	
11	 C17	24.017	16.447	11.844	C.2	1	RES1	0.000	
12	 C18	25.283	16.298	11.348	C.2	1	RES1	0.000	
13	 C19	26.190	17.121	12.170	C.2	1	RES1	0.000	
14	 C20	25.966	18.636	14.152	C.3	1	RES1	0.000	
15	 C21	26.863	17.959	15.188	C.3	1	RES1	0.000	
16	 C22	27.370	19.033	16.152	C.3	1	RES1	0.000	
17	 C23	26.221	19.773	16.812	C.2	1	RES1	0.000	
18	 C24	24.790	19.372	14.811	C.2	1	RES1	0.000	
19	 C25	24.092	17.348	12.986	C.2	1	RES1	0.000	
@<TRIPOS>BOND
1 1 14 1
2 1 19 ar
3 7 8 ar
4 7 12 ar
5 8 9 ar
6 9 10 ar
7 10 11 ar
8 11 12 ar
9 11 19 ar
10 12 13 ar
11 1 13 ar
12 3 13 2
13 14 15 1
14 14 18 1
15 15 16 1
16 16 17 1
17 2 17 1
18 4 17 2
19 2 18 1
20 5 18 2
21 6 19 2
@<TRIPOS>SUBSTRUCTURE
1	RES1	1	GROUP	1 ****	RES
