# created with PyMOL 2.5.2
@<TRIPOS>MOLECULE
GSK_7BQU_E3ligase
19 21 1                 
SMALL
USER_CHARGES
@<TRIPOS>ATOM
1	  N2	25.446	17.712	13.133	N.2	1	RES1	0.000	
2	  N3	25.053	19.859	16.066	N.pl3	1	RES1	0.000	
3	  O4	27.397	17.209	11.925	O.2	1	RES1	0.000	
4	  O5	26.323	20.286	17.918	O.2	1	RES1	0.000	
5	  O6	23.734	19.589	14.253	O.2	1	RES1	0.000	
6	  O7	23.153	17.711	13.665	O.2	1	RES1	0.000	
7	 C15	25.533	15.482	10.219	C.2	1	RES1	0.000	
8	 C16	24.449	14.832	9.661	C.2	1	RES1	0.000	
9	 C17	23.144	14.986	10.207	C.2	1	RES1	0.000	
10	 C18	22.922	15.802	11.301	C.2	1	RES1	0.000	
11	 C19	24.036	16.451	11.858	C.2	1	RES1	0.000	
12	 C20	25.304	16.291	11.328	C.2	1	RES1	0.000	
13	 C21	26.219	17.126	12.148	C.2	1	RES1	0.000	
14	 C22	25.986	18.612	14.156	C.3	1	RES1	0.000	
15	 C23	26.858	17.975	15.208	C.3	1	RES1	0.000	
16	 C24	27.332	19.025	16.163	C.3	1	RES1	0.000	
17	 C25	26.205	19.767	16.830	C.2	1	RES1	0.000	
18	 C26	24.798	19.374	14.812	C.2	1	RES1	0.000	
19	 C27	24.100	17.363	12.987	C.2	1	RES1	0.000	
@<TRIPOS>BOND
1 1 13 ar
2 1 14 1
3 1 19 ar
4 7 8 ar
5 7 12 ar
6 8 9 ar
7 9 10 ar
8 10 11 ar
9 11 12 ar
10 11 19 ar
11 12 13 ar
12 3 13 2
13 14 15 1
14 14 18 1
15 15 16 1
16 16 17 1
17 2 17 1
18 4 17 2
19 2 18 1
20 5 18 2
21 6 19 2
@<TRIPOS>SUBSTRUCTURE
1	RES1	1	GROUP	1 ****	RES
