# created with PyMOL 2.5.2
@<TRIPOS>MOLECULE
GSK_7BQU_E3ligase
19 21 1                 
SMALL
USER_CHARGES
@<TRIPOS>ATOM
1	  N2	25.401	17.736	13.122	N.2	1	RES1	0.000	
2	  N3	25.076	19.836	16.099	N.pl3	1	RES1	0.000	
3	  O4	27.378	17.250	11.944	O.2	1	RES1	0.000	
4	  O5	26.381	20.252	17.914	O.2	1	RES1	0.000	
5	  O6	23.697	19.607	14.313	O.2	1	RES1	0.000	
6	  O7	23.112	17.721	13.605	O.2	1	RES1	0.000	
7	 C17	25.574	15.473	10.261	C.2	1	RES1	0.000	
8	 C18	24.474	14.808	9.676	C.2	1	RES1	0.000	
9	 C19	23.185	14.932	10.191	C.2	1	RES1	0.000	
10	 C20	22.946	15.783	11.288	C.2	1	RES1	0.000	
11	 C21	24.019	16.451	11.862	C.2	1	RES1	0.000	
12	 C22	25.282	16.302	11.359	C.2	1	RES1	0.000	
13	 C23	26.176	17.143	12.157	C.2	1	RES1	0.000	
14	 C24	25.957	18.671	14.110	C.3	1	RES1	0.000	
15	 C25	26.860	17.988	15.153	C.3	1	RES1	0.000	
16	 C26	27.382	19.016	16.137	C.3	1	RES1	0.000	
17	 C27	26.229	19.771	16.823	C.2	1	RES1	0.000	
18	 C28	24.790	19.360	14.829	C.2	1	RES1	0.000	
19	 C29	24.073	17.349	12.996	C.2	1	RES1	0.000	
@<TRIPOS>BOND
1 1 13 ar
2 1 14 1
3 1 19 ar
4 7 8 ar
5 7 12 ar
6 8 9 ar
7 9 10 ar
8 10 11 ar
9 11 12 ar
10 11 19 ar
11 12 13 ar
12 3 13 2
13 14 15 1
14 14 18 1
15 15 16 1
16 16 17 1
17 2 17 1
18 4 17 2
19 2 18 1
20 5 18 2
21 6 19 2
@<TRIPOS>SUBSTRUCTURE
1	RES1	1	GROUP	1 ****	RES
