# created with PyMOL 2.5.2
@<TRIPOS>MOLECULE
GSK_7BQU_E3ligase
19 21 1                 
SMALL
USER_CHARGES
@<TRIPOS>ATOM
1	  N2	25.396	17.697	13.151	N.2	1	RES1	0.000	
2	  N3	25.086	19.890	16.083	N.pl3	1	RES1	0.000	
3	  O6	27.383	17.213	11.976	O.2	1	RES1	0.000	
4	  O7	26.369	20.305	17.902	O.2	1	RES1	0.000	
5	  O8	23.732	19.607	14.280	O.2	1	RES1	0.000	
6	  O9	23.098	17.689	13.644	O.2	1	RES1	0.000	
7	 C11	25.561	15.502	10.244	C.2	1	RES1	0.000	
8	 C12	24.473	14.839	9.648	C.2	1	RES1	0.000	
9	 C13	23.193	14.965	10.177	C.2	1	RES1	0.000	
10	 C14	22.931	15.786	11.272	C.2	1	RES1	0.000	
11	 C15	24.022	16.429	11.860	C.2	1	RES1	0.000	
12	 C16	25.290	16.296	11.360	C.2	1	RES1	0.000	
13	 C17	26.184	17.137	12.174	C.2	1	RES1	0.000	
14	 C18	25.923	18.635	14.148	C.3	1	RES1	0.000	
15	 C19	26.856	17.968	15.187	C.3	1	RES1	0.000	
16	 C20	27.370	19.006	16.136	C.3	1	RES1	0.000	
17	 C21	26.251	19.760	16.796	C.2	1	RES1	0.000	
18	 C22	24.805	19.390	14.813	C.2	1	RES1	0.000	
19	 C23	24.072	17.335	12.987	C.2	1	RES1	0.000	
@<TRIPOS>BOND
1 1 19 ar
2 7 8 ar
3 7 12 ar
4 8 9 ar
5 9 10 ar
6 10 11 ar
7 11 12 ar
8 11 19 ar
9 12 13 ar
10 1 13 ar
11 3 13 2
12 1 14 1
13 14 15 1
14 14 18 1
15 15 16 1
16 16 17 1
17 2 17 1
18 4 17 2
19 2 18 1
20 5 18 2
21 6 19 2
@<TRIPOS>SUBSTRUCTURE
1	RES1	1	GROUP	1 ****	RES
