# created with PyMOL 2.5.2
@<TRIPOS>MOLECULE
GSK_7BQU_E3ligase
19 21 1                 
SMALL
USER_CHARGES
@<TRIPOS>ATOM
1	  N2	25.429	17.696	13.136	N.2	1	RES1	0.000	
2	  N3	25.072	19.875	16.042	N.pl3	1	RES1	0.000	
3	  O7	27.398	17.207	11.926	O.2	1	RES1	0.000	
4	  O8	26.340	20.287	17.910	O.2	1	RES1	0.000	
5	  O9	23.748	19.586	14.267	O.2	1	RES1	0.000	
6	 O10	23.112	17.691	13.647	O.2	1	RES1	0.000	
7	 C13	25.538	15.495	10.252	C.2	1	RES1	0.000	
8	 C14	24.480	14.850	9.655	C.2	1	RES1	0.000	
9	 C15	23.174	14.991	10.196	C.2	1	RES1	0.000	
10	 C16	22.930	15.794	11.290	C.2	1	RES1	0.000	
11	 C17	24.014	16.444	11.853	C.2	1	RES1	0.000	
12	 C18	25.281	16.313	11.359	C.2	1	RES1	0.000	
13	 C19	26.191	17.113	12.142	C.2	1	RES1	0.000	
14	 C20	25.960	18.626	14.154	C.3	1	RES1	0.000	
15	 C21	26.870	17.961	15.197	C.3	1	RES1	0.000	
16	 C22	27.357	19.020	16.182	C.3	1	RES1	0.000	
17	 C23	26.207	19.781	16.808	C.2	1	RES1	0.000	
18	 C24	24.808	19.387	14.818	C.2	1	RES1	0.000	
19	 C25	24.086	17.338	13.004	C.2	1	RES1	0.000	
@<TRIPOS>BOND
1 1 14 1
2 1 19 ar
3 6 19 2
4 7 8 ar
5 7 12 ar
6 8 9 ar
7 9 10 ar
8 10 11 ar
9 11 12 ar
10 11 19 ar
11 12 13 ar
12 1 13 ar
13 3 13 2
14 14 15 1
15 14 18 1
16 15 16 1
17 16 17 1
18 2 17 1
19 4 17 2
20 2 18 1
21 5 18 2
@<TRIPOS>SUBSTRUCTURE
1	RES1	1	GROUP	1 ****	RES
