# created with PyMOL 2.5.2
@<TRIPOS>MOLECULE
BRD4_7BQU_E3ligase
19 21 1                 
SMALL
USER_CHARGES
@<TRIPOS>ATOM
1	  N6	25.425	17.706	13.137	N.2	1	RES1	0.000	
2	  O6	27.415	17.219	11.937	O.2	1	RES1	0.000	
3	  N7	25.071	19.884	16.075	N.pl3	1	RES1	0.000	
4	  O7	26.344	20.282	17.900	O.2	1	RES1	0.000	
5	  O8	23.727	19.596	14.282	O.2	1	RES1	0.000	
6	  O9	23.110	17.708	13.640	O.2	1	RES1	0.000	
7	 C24	25.558	15.498	10.238	C.2	1	RES1	0.000	
8	 C25	24.468	14.838	9.682	C.2	1	RES1	0.000	
9	 C26	23.168	14.968	10.180	C.2	1	RES1	0.000	
10	 C27	22.934	15.807	11.297	C.2	1	RES1	0.000	
11	 C28	24.027	16.436	11.867	C.2	1	RES1	0.000	
12	 C29	25.287	16.304	11.360	C.2	1	RES1	0.000	
13	 C30	26.169	17.104	12.147	C.2	1	RES1	0.000	
14	 C31	25.958	18.631	14.142	C.3	1	RES1	0.000	
15	 C32	26.850	17.964	15.179	C.3	1	RES1	0.000	
16	 C33	27.360	19.002	16.142	C.3	1	RES1	0.000	
17	 C34	26.221	19.772	16.819	C.2	1	RES1	0.000	
18	 C35	24.795	19.388	14.812	C.2	1	RES1	0.000	
19	 C36	24.110	17.346	13.003	C.2	1	RES1	0.000	
@<TRIPOS>BOND
1 7 8 ar
2 7 12 ar
3 8 9 ar
4 9 10 ar
5 10 11 ar
6 11 12 ar
7 11 19 ar
8 12 13 ar
9 1 13 ar
10 2 13 2
11 1 14 1
12 14 15 1
13 14 18 1
14 15 16 1
15 16 17 1
16 3 17 1
17 4 17 2
18 3 18 1
19 5 18 2
20 1 19 ar
21 6 19 2
@<TRIPOS>SUBSTRUCTURE
1	RES1	1	GROUP	1 ****	RES
