# created with PyMOL 2.5.2
@<TRIPOS>MOLECULE
GSK_7BQU_E3ligase
19 21 1                 
SMALL
USER_CHARGES
@<TRIPOS>ATOM
1	  N2	25.424	17.685	13.125	N.2	1	RES1	0.000	
2	  N3	25.058	19.877	16.073	N.pl3	1	RES1	0.000	
3	  O8	27.405	17.224	11.936	O.2	1	RES1	0.000	
4	  O9	26.328	20.296	17.890	O.2	1	RES1	0.000	
5	 O10	23.743	19.579	14.253	O.2	1	RES1	0.000	
6	 O11	23.102	17.711	13.658	O.2	1	RES1	0.000	
7	 C15	25.558	15.496	10.234	C.2	1	RES1	0.000	
8	 C16	24.463	14.844	9.668	C.2	1	RES1	0.000	
9	 C17	23.156	14.985	10.191	C.2	1	RES1	0.000	
10	 C18	22.921	15.796	11.291	C.2	1	RES1	0.000	
11	 C19	24.024	16.444	11.856	C.2	1	RES1	0.000	
12	 C20	25.307	16.311	11.347	C.2	1	RES1	0.000	
13	 C21	26.185	17.126	12.157	C.2	1	RES1	0.000	
14	 C22	25.961	18.615	14.160	C.3	1	RES1	0.000	
15	 C23	26.860	17.965	15.204	C.3	1	RES1	0.000	
16	 C24	27.358	19.006	16.166	C.3	1	RES1	0.000	
17	 C25	26.223	19.776	16.821	C.2	1	RES1	0.000	
18	 C26	24.807	19.369	14.798	C.2	1	RES1	0.000	
19	 C27	24.111	17.349	13.010	C.2	1	RES1	0.000	
@<TRIPOS>BOND
1 1 13 ar
2 1 14 1
3 1 19 ar
4 5 18 2
5 6 19 2
6 7 8 ar
7 7 12 ar
8 8 9 ar
9 9 10 ar
10 10 11 ar
11 11 12 ar
12 11 19 ar
13 12 13 ar
14 3 13 2
15 14 15 1
16 14 18 1
17 15 16 1
18 16 17 1
19 2 17 1
20 4 17 2
21 2 18 1
@<TRIPOS>SUBSTRUCTURE
1	RES1	1	GROUP	1 ****	RES
