# created with PyMOL 2.5.2
@<TRIPOS>MOLECULE
GSK_7BQU_E3ligase
19 21 1                 
SMALL
USER_CHARGES
@<TRIPOS>ATOM
1	  N3	25.422	17.705	13.163	N.2	1	RES1	0.000	
2	  N4	25.093	19.879	16.087	N.pl3	1	RES1	0.000	
3	  O4	27.378	17.203	11.958	O.2	1	RES1	0.000	
4	  O5	26.363	20.306	17.901	O.2	1	RES1	0.000	
5	  O6	23.704	19.590	14.278	O.2	1	RES1	0.000	
6	  O7	23.105	17.719	13.631	O.2	1	RES1	0.000	
7	 C16	25.549	15.510	10.233	C.2	1	RES1	0.000	
8	 C17	24.468	14.829	9.655	C.2	1	RES1	0.000	
9	 C18	23.175	14.972	10.178	C.2	1	RES1	0.000	
10	 C19	22.955	15.807	11.295	C.2	1	RES1	0.000	
11	 C20	24.026	16.436	11.841	C.2	1	RES1	0.000	
12	 C21	25.295	16.283	11.343	C.2	1	RES1	0.000	
13	 C22	26.180	17.110	12.174	C.2	1	RES1	0.000	
14	 C23	25.936	18.609	14.141	C.3	1	RES1	0.000	
15	 C24	26.842	17.961	15.196	C.3	1	RES1	0.000	
16	 C25	27.375	19.028	16.145	C.3	1	RES1	0.000	
17	 C26	26.236	19.779	16.805	C.2	1	RES1	0.000	
18	 C27	24.800	19.379	14.827	C.2	1	RES1	0.000	
19	 C28	24.091	17.349	12.988	C.2	1	RES1	0.000	
@<TRIPOS>BOND
1 7 8 ar
2 7 12 ar
3 8 9 ar
4 9 10 ar
5 10 11 ar
6 11 12 ar
7 11 19 ar
8 12 13 ar
9 1 13 ar
10 3 13 2
11 1 14 1
12 14 15 1
13 14 18 1
14 15 16 1
15 16 17 1
16 2 17 1
17 4 17 2
18 2 18 1
19 5 18 2
20 1 19 ar
21 6 19 2
@<TRIPOS>SUBSTRUCTURE
1	RES1	1	GROUP	1 ****	RES
