# created with PyMOL 2.5.2
@<TRIPOS>MOLECULE
GSK_7BQU_E3ligase
19 21 1                 
SMALL
USER_CHARGES
@<TRIPOS>ATOM
1	  N3	25.416	17.714	13.140	N.2	1	RES1	0.000	
2	  N4	25.073	19.894	16.084	N.pl3	1	RES1	0.000	
3	  O6	27.379	17.219	11.962	O.2	1	RES1	0.000	
4	  O7	26.332	20.277	17.893	O.2	1	RES1	0.000	
5	  O8	23.744	19.613	14.254	O.2	1	RES1	0.000	
6	  O9	23.124	17.692	13.643	O.2	1	RES1	0.000	
7	 C14	25.539	15.527	10.232	C.2	1	RES1	0.000	
8	 C15	24.462	14.813	9.655	C.2	1	RES1	0.000	
9	 C16	23.182	14.962	10.204	C.2	1	RES1	0.000	
10	 C17	22.930	15.770	11.290	C.2	1	RES1	0.000	
11	 C18	24.040	16.439	11.872	C.2	1	RES1	0.000	
12	 C19	25.291	16.319	11.363	C.2	1	RES1	0.000	
13	 C20	26.184	17.131	12.166	C.2	1	RES1	0.000	
14	 C21	25.959	18.640	14.146	C.3	1	RES1	0.000	
15	 C22	26.857	17.948	15.180	C.3	1	RES1	0.000	
16	 C23	27.342	18.983	16.162	C.3	1	RES1	0.000	
17	 C24	26.241	19.762	16.804	C.2	1	RES1	0.000	
18	 C25	24.816	19.394	14.805	C.2	1	RES1	0.000	
19	 C26	24.085	17.356	12.983	C.2	1	RES1	0.000	
@<TRIPOS>BOND
1 7 8 ar
2 7 12 ar
3 8 9 ar
4 9 10 ar
5 10 11 ar
6 11 12 ar
7 11 19 ar
8 12 13 ar
9 1 13 ar
10 3 13 2
11 1 14 1
12 14 15 1
13 14 18 1
14 15 16 1
15 16 17 1
16 2 17 1
17 4 17 2
18 2 18 1
19 5 18 2
20 1 19 ar
21 6 19 2
@<TRIPOS>SUBSTRUCTURE
1	RES1	1	GROUP	1 ****	RES
