# created with PyMOL 2.5.2
@<TRIPOS>MOLECULE
GSK_7BQU_E3ligase
19 21 1                 
SMALL
USER_CHARGES
@<TRIPOS>ATOM
1	  N3	25.401	17.696	13.155	N.2	1	RES1	0.000	
2	  N4	25.082	19.880	16.067	N.pl3	1	RES1	0.000	
3	  O7	27.397	17.219	11.944	O.2	1	RES1	0.000	
4	  O8	26.378	20.300	17.916	O.2	1	RES1	0.000	
5	  O9	23.727	19.610	14.304	O.2	1	RES1	0.000	
6	 O10	23.097	17.695	13.653	O.2	1	RES1	0.000	
7	 C16	25.563	15.496	10.245	C.2	1	RES1	0.000	
8	 C17	24.484	14.826	9.663	C.2	1	RES1	0.000	
9	 C18	23.190	14.966	10.165	C.2	1	RES1	0.000	
10	 C19	22.921	15.787	11.279	C.2	1	RES1	0.000	
11	 C20	24.013	16.437	11.843	C.2	1	RES1	0.000	
12	 C21	25.287	16.299	11.348	C.2	1	RES1	0.000	
13	 C22	26.190	17.118	12.171	C.2	1	RES1	0.000	
14	 C23	25.930	18.626	14.142	C.3	1	RES1	0.000	
15	 C24	26.850	17.961	15.184	C.3	1	RES1	0.000	
16	 C25	27.379	19.015	16.132	C.3	1	RES1	0.000	
17	 C26	26.221	19.788	16.803	C.2	1	RES1	0.000	
18	 C27	24.809	19.387	14.836	C.2	1	RES1	0.000	
19	 C28	24.077	17.347	12.990	C.2	1	RES1	0.000	
@<TRIPOS>BOND
1 6 19 2
2 7 8 ar
3 7 12 ar
4 8 9 ar
5 9 10 ar
6 10 11 ar
7 11 12 ar
8 11 19 ar
9 12 13 ar
10 1 13 ar
11 3 13 2
12 1 14 1
13 14 15 1
14 14 18 1
15 15 16 1
16 16 17 1
17 2 17 1
18 4 17 2
19 2 18 1
20 5 18 2
21 1 19 ar
@<TRIPOS>SUBSTRUCTURE
1	RES1	1	GROUP	1 ****	RES
