# created with PyMOL 2.5.2
@<TRIPOS>MOLECULE
ALK_6H0G_E3ligase
20 22 1                 
SMALL
USER_CHARGES
@<TRIPOS>ATOM
1	  O5	2.821	53.726	-82.846	O.2	1	RES1	0.000	
2	  O6	3.688	49.710	-77.405	O.2	1	RES1	0.000	
3	  N7	1.985	54.442	-85.596	N.pl3	1	RES1	0.000	
4	  O7	0.222	50.428	-80.207	O.2	1	RES1	0.000	
5	  N8	1.732	51.762	-82.114	N.2	1	RES1	0.000	
6	  O8	0.405	49.812	-82.264	O.2	1	RES1	0.000	
7	  N9	1.989	50.081	-78.849	N.pl3	1	RES1	0.000	
8	 C34	1.341	53.202	-85.449	C.2	1	RES1	0.000	
9	 C35	0.536	52.685	-86.454	C.2	1	RES1	0.000	
10	 C36	-0.199	51.478	-86.293	C.2	1	RES1	0.000	
11	 C37	-0.141	50.802	-85.073	C.2	1	RES1	0.000	
12	 C38	0.654	51.343	-84.073	C.2	1	RES1	0.000	
13	 C39	1.349	52.499	-84.240	C.2	1	RES1	0.000	
14	 C40	2.068	52.788	-82.992	C.2	1	RES1	0.000	
15	 C41	2.244	51.630	-80.761	C.3	1	RES1	0.000	
16	 C42	3.729	51.249	-80.660	C.3	1	RES1	0.000	
17	 C43	4.141	51.203	-79.201	C.3	1	RES1	0.000	
18	 C44	3.279	50.259	-78.409	C.2	1	RES1	0.000	
19	 C45	1.377	50.646	-79.958	C.2	1	RES1	0.000	
20	 C46	0.903	50.849	-82.722	C.2	1	RES1	0.000	
@<TRIPOS>BOND
1 3 8 1
2 8 9 ar
3 8 13 ar
4 9 10 ar
5 10 11 ar
6 11 12 ar
7 12 13 ar
8 12 20 ar
9 13 14 ar
10 1 14 2
11 5 14 ar
12 5 15 1
13 15 16 1
14 15 19 1
15 16 17 1
16 17 18 1
17 2 18 2
18 7 18 1
19 4 19 2
20 7 19 1
21 5 20 ar
22 6 20 2
@<TRIPOS>SUBSTRUCTURE
1	RES1	1	GROUP	1 ****	RES
