# created with PyMOL 2.5.2
@<TRIPOS>MOLECULE
ALK_6H0G_E3ligase
20 22 1                 
SMALL
USER_CHARGES
@<TRIPOS>ATOM
1	  O5	2.823	53.746	-82.828	O.2	1	RES1	0.000	
2	  O6	3.681	49.674	-77.402	O.3	1	RES1	0.000	
3	  N7	1.973	54.440	-85.603	N.pl3	1	RES1	0.000	
4	  O7	0.219	50.454	-80.222	O.2	1	RES1	0.000	
5	  N8	1.742	51.777	-82.101	N.2	1	RES1	0.000	
6	  O8	0.429	49.830	-82.249	O.2	1	RES1	0.000	
7	  N9	1.984	50.079	-78.875	N.pl3	1	RES1	0.000	
8	 C36	1.325	53.202	-85.454	C.2	1	RES1	0.000	
9	 C37	0.520	52.683	-86.460	C.2	1	RES1	0.000	
10	 C38	-0.190	51.476	-86.289	C.2	1	RES1	0.000	
11	 C39	-0.127	50.778	-85.086	C.2	1	RES1	0.000	
12	 C40	0.660	51.343	-84.062	C.2	1	RES1	0.000	
13	 C41	1.351	52.490	-84.239	C.2	1	RES1	0.000	
14	 C42	2.062	52.785	-83.003	C.2	1	RES1	0.000	
15	 C43	2.253	51.640	-80.736	C.3	1	RES1	0.000	
16	 C44	3.719	51.256	-80.673	C.3	1	RES1	0.000	
17	 C45	4.141	51.180	-79.208	C.3	1	RES1	0.000	
18	 C46	3.274	50.250	-78.422	C.3	1	RES1	0.000	
19	 C47	1.379	50.643	-79.939	C.2	1	RES1	0.000	
20	 C48	0.907	50.867	-82.714	C.2	1	RES1	0.000	
@<TRIPOS>BOND
1 3 8 1
2 8 9 ar
3 8 13 ar
4 9 10 ar
5 10 11 ar
6 11 12 ar
7 12 13 ar
8 12 20 ar
9 13 14 ar
10 1 14 2
11 5 14 ar
12 5 15 1
13 15 16 1
14 15 19 1
15 16 17 1
16 17 18 1
17 2 18 1
18 7 18 1
19 4 19 2
20 7 19 1
21 5 20 ar
22 6 20 2
@<TRIPOS>SUBSTRUCTURE
1	RES1	1	GROUP	1 ****	RES
