# created with PyMOL 2.5.2
@<TRIPOS>MOLECULE
ALK_6H0G_E3ligase
20 22 1                 
SMALL
USER_CHARGES
@<TRIPOS>ATOM
1	  O5	2.833	53.769	-82.874	O.2	1	RES1	0.000	
2	  O6	3.664	49.637	-77.434	O.3	1	RES1	0.000	
3	  N7	1.978	54.438	-85.621	N.pl3	1	RES1	0.000	
4	  O7	0.235	50.408	-80.253	O.2	1	RES1	0.000	
5	  N8	1.752	51.813	-82.121	N.2	1	RES1	0.000	
6	  O8	0.432	49.844	-82.210	O.2	1	RES1	0.000	
7	  N9	1.981	50.052	-78.897	N.pl3	1	RES1	0.000	
8	 C38	1.343	53.175	-85.460	C.2	1	RES1	0.000	
9	 C39	0.503	52.667	-86.450	C.2	1	RES1	0.000	
10	 C40	-0.203	51.456	-86.262	C.2	1	RES1	0.000	
11	 C41	-0.118	50.800	-85.050	C.2	1	RES1	0.000	
12	 C42	0.663	51.328	-84.056	C.2	1	RES1	0.000	
13	 C43	1.343	52.510	-84.246	C.2	1	RES1	0.000	
14	 C44	2.069	52.805	-82.999	C.2	1	RES1	0.000	
15	 C45	2.252	51.670	-80.720	C.3	1	RES1	0.000	
16	 C46	3.731	51.293	-80.651	C.3	1	RES1	0.000	
17	 C47	4.130	51.197	-79.170	C.3	1	RES1	0.000	
18	 C48	3.243	50.208	-78.422	C.3	1	RES1	0.000	
19	 C49	1.389	50.645	-79.988	C.2	1	RES1	0.000	
20	 C50	0.905	50.877	-82.682	C.2	1	RES1	0.000	
@<TRIPOS>BOND
1 3 8 1
2 8 9 ar
3 8 13 ar
4 9 10 ar
5 10 11 ar
6 11 12 ar
7 12 13 ar
8 12 20 ar
9 13 14 ar
10 1 14 2
11 5 14 ar
12 5 15 1
13 15 16 1
14 15 19 1
15 16 17 1
16 17 18 1
17 2 18 1
18 7 18 1
19 4 19 2
20 7 19 1
21 5 20 ar
22 6 20 2
@<TRIPOS>SUBSTRUCTURE
1	RES1	1	GROUP	1 ****	RES
