# created with PyMOL 2.5.2
@<TRIPOS>MOLECULE
ALK_6H0G_E3ligase
20 22 1                 
SMALL
USER_CHARGES
@<TRIPOS>ATOM
1	  O6	2.812	53.783	-82.840	O.2	1	RES1	0.000	
2	  N7	1.960	54.442	-85.612	N.pl3	1	RES1	0.000	
3	  O7	3.684	49.661	-77.426	O.2	1	RES1	0.000	
4	  N8	1.729	51.802	-82.100	N.2	1	RES1	0.000	
5	  O8	0.214	50.443	-80.198	O.2	1	RES1	0.000	
6	  N9	1.960	50.065	-78.868	N.pl3	1	RES1	0.000	
7	  O9	0.448	49.830	-82.237	O.2	1	RES1	0.000	
8	 C34	1.342	53.205	-85.453	C.2	1	RES1	0.000	
9	 C35	0.516	52.664	-86.467	C.2	1	RES1	0.000	
10	 C36	-0.184	51.467	-86.292	C.2	1	RES1	0.000	
11	 C37	-0.131	50.775	-85.078	C.2	1	RES1	0.000	
12	 C38	0.673	51.338	-84.054	C.2	1	RES1	0.000	
13	 C39	1.354	52.501	-84.247	C.2	1	RES1	0.000	
14	 C40	2.074	52.800	-82.993	C.2	1	RES1	0.000	
15	 C41	2.233	51.659	-80.737	C.3	1	RES1	0.000	
16	 C42	3.726	51.239	-80.658	C.3	1	RES1	0.000	
17	 C43	4.155	51.180	-79.220	C.3	1	RES1	0.000	
18	 C44	3.270	50.219	-78.431	C.2	1	RES1	0.000	
19	 C45	1.384	50.661	-79.958	C.2	1	RES1	0.000	
20	 C46	0.906	50.858	-82.697	C.2	1	RES1	0.000	
@<TRIPOS>BOND
1 2 8 1
2 8 9 ar
3 8 13 ar
4 9 10 ar
5 10 11 ar
6 11 12 ar
7 12 13 ar
8 12 20 ar
9 13 14 ar
10 1 14 2
11 4 14 ar
12 4 15 1
13 15 16 1
14 15 19 1
15 16 17 1
16 17 18 1
17 3 18 2
18 6 18 1
19 5 19 2
20 6 19 1
21 4 20 ar
22 7 20 2
@<TRIPOS>SUBSTRUCTURE
1	RES1	1	GROUP	1 ****	RES
