# created with PyMOL 2.5.2
@<TRIPOS>MOLECULE
ALK_6H0G_E3ligase
20 22 1                 
SMALL
USER_CHARGES
@<TRIPOS>ATOM
1	  N7	1.961	54.431	-85.595	N.pl3	1	RES1	0.000	
2	  O7	2.811	53.757	-82.839	O.2	1	RES1	0.000	
3	  N8	1.709	51.791	-82.096	N.2	1	RES1	0.000	
4	  O8	3.699	49.687	-77.424	O.2	1	RES1	0.000	
5	  N9	1.987	50.063	-78.864	N.pl3	1	RES1	0.000	
6	  O9	0.189	50.439	-80.189	O.2	1	RES1	0.000	
7	 O10	0.438	49.824	-82.251	O.2	1	RES1	0.000	
8	 C36	1.361	53.203	-85.450	C.2	1	RES1	0.000	
9	 C37	0.532	52.652	-86.477	C.2	1	RES1	0.000	
10	 C38	-0.169	51.475	-86.280	C.2	1	RES1	0.000	
11	 C39	-0.119	50.783	-85.086	C.2	1	RES1	0.000	
12	 C40	0.666	51.332	-84.059	C.2	1	RES1	0.000	
13	 C41	1.350	52.503	-84.215	C.2	1	RES1	0.000	
14	 C42	2.048	52.825	-83.005	C.2	1	RES1	0.000	
15	 C43	2.221	51.648	-80.722	C.3	1	RES1	0.000	
16	 C44	3.713	51.251	-80.700	C.3	1	RES1	0.000	
17	 C45	4.136	51.180	-79.230	C.3	1	RES1	0.000	
18	 C46	3.303	50.230	-78.426	C.2	1	RES1	0.000	
19	 C47	1.369	50.652	-79.959	C.2	1	RES1	0.000	
20	 C48	0.919	50.866	-82.698	C.2	1	RES1	0.000	
@<TRIPOS>BOND
1 7 20 2
2 1 8 1
3 8 9 ar
4 8 13 ar
5 9 10 ar
6 10 11 ar
7 11 12 ar
8 12 13 ar
9 12 20 ar
10 13 14 ar
11 2 14 2
12 3 14 ar
13 3 15 1
14 15 16 1
15 15 19 1
16 16 17 1
17 17 18 1
18 4 18 2
19 5 18 1
20 5 19 1
21 6 19 2
22 3 20 ar
@<TRIPOS>SUBSTRUCTURE
1	RES1	1	GROUP	1 ****	RES
