# created with PyMOL 2.5.2
@<TRIPOS>MOLECULE
ALK_6H0G_E3ligase
20 22 1                 
SMALL
USER_CHARGES
@<TRIPOS>ATOM
1	  N7	1.984	54.439	-85.607	N.pl3	1	RES1	0.000	
2	  N8	1.725	51.779	-82.131	N.2	1	RES1	0.000	
3	  O8	2.809	53.728	-82.831	O.2	1	RES1	0.000	
4	  N9	1.985	50.058	-78.845	N.pl3	1	RES1	0.000	
5	  O9	3.707	49.696	-77.406	O.2	1	RES1	0.000	
6	 O10	0.226	50.419	-80.225	O.2	1	RES1	0.000	
7	 O11	0.424	49.833	-82.251	O.2	1	RES1	0.000	
8	 C38	1.347	53.204	-85.464	C.2	1	RES1	0.000	
9	 C39	0.527	52.668	-86.467	C.2	1	RES1	0.000	
10	 C40	-0.184	51.485	-86.267	C.2	1	RES1	0.000	
11	 C41	-0.135	50.782	-85.066	C.2	1	RES1	0.000	
12	 C42	0.654	51.342	-84.066	C.2	1	RES1	0.000	
13	 C43	1.346	52.488	-84.241	C.2	1	RES1	0.000	
14	 C44	2.067	52.796	-82.984	C.2	1	RES1	0.000	
15	 C45	2.240	51.644	-80.753	C.3	1	RES1	0.000	
16	 C46	3.728	51.262	-80.660	C.3	1	RES1	0.000	
17	 C47	4.127	51.201	-79.198	C.3	1	RES1	0.000	
18	 C48	3.276	50.245	-78.411	C.2	1	RES1	0.000	
19	 C49	1.384	50.659	-79.967	C.2	1	RES1	0.000	
20	 C50	0.888	50.867	-82.727	C.2	1	RES1	0.000	
@<TRIPOS>BOND
1 6 19 2
2 7 20 2
3 1 8 1
4 8 9 ar
5 8 13 ar
6 9 10 ar
7 10 11 ar
8 11 12 ar
9 12 13 ar
10 12 20 ar
11 13 14 ar
12 2 14 ar
13 3 14 2
14 2 15 1
15 15 16 1
16 15 19 1
17 16 17 1
18 17 18 1
19 4 18 1
20 5 18 2
21 4 19 1
22 2 20 ar
@<TRIPOS>SUBSTRUCTURE
1	RES1	1	GROUP	1 ****	RES
