# created with PyMOL 2.5.2
@<TRIPOS>MOLECULE
BRD4_7BQU_E3ligase
19 21 1                 
SMALL
USER_CHARGES
@<TRIPOS>ATOM
1	  N6	25.428	17.691	13.151	N.2	1	RES1	0.000	
2	  N7	25.084	19.880	16.083	N.pl3	1	RES1	0.000	
3	  O7	27.386	17.199	11.965	O.2	1	RES1	0.000	
4	  O8	26.361	20.312	17.898	O.2	1	RES1	0.000	
5	  O9	23.727	19.574	14.288	O.2	1	RES1	0.000	
6	 O10	23.102	17.688	13.637	O.2	1	RES1	0.000	
7	 C26	25.559	15.495	10.243	C.2	1	RES1	0.000	
8	 C27	24.477	14.840	9.651	C.2	1	RES1	0.000	
9	 C28	23.177	14.984	10.176	C.2	1	RES1	0.000	
10	 C29	22.917	15.797	11.284	C.2	1	RES1	0.000	
11	 C30	24.019	16.422	11.847	C.2	1	RES1	0.000	
12	 C31	25.294	16.307	11.338	C.2	1	RES1	0.000	
13	 C32	26.178	17.118	12.160	C.2	1	RES1	0.000	
14	 C33	25.938	18.627	14.155	C.3	1	RES1	0.000	
15	 C34	26.853	17.971	15.178	C.3	1	RES1	0.000	
16	 C35	27.351	19.044	16.148	C.3	1	RES1	0.000	
17	 C36	26.245	19.778	16.806	C.2	1	RES1	0.000	
18	 C37	24.805	19.353	14.827	C.2	1	RES1	0.000	
19	 C38	24.094	17.372	13.003	C.2	1	RES1	0.000	
@<TRIPOS>BOND
1 6 19 2
2 7 8 ar
3 7 12 ar
4 8 9 ar
5 9 10 ar
6 10 11 ar
7 11 12 ar
8 11 19 ar
9 12 13 ar
10 1 13 ar
11 3 13 2
12 1 14 1
13 14 15 1
14 14 18 1
15 15 16 1
16 16 17 1
17 2 17 1
18 4 17 2
19 2 18 1
20 5 18 2
21 1 19 ar
@<TRIPOS>SUBSTRUCTURE
1	RES1	1	GROUP	1 ****	RES
