# created with PyMOL 2.5.2
@<TRIPOS>MOLECULE
ALK_6H0G_E3ligase
20 22 1                 
SMALL
USER_CHARGES
@<TRIPOS>ATOM
1	  N7	1.987	54.463	-85.574	N.pl3	1	RES1	0.000	
2	  N8	1.713	51.762	-82.119	N.2	1	RES1	0.000	
3	  N9	1.978	50.110	-78.828	N.pl3	1	RES1	0.000	
4	  O9	2.790	53.728	-82.813	O.2	1	RES1	0.000	
5	 O10	3.717	49.711	-77.408	O.2	1	RES1	0.000	
6	 O11	0.198	50.480	-80.141	O.2	1	RES1	0.000	
7	 O12	0.435	49.794	-82.278	O.2	1	RES1	0.000	
8	 C40	1.347	53.218	-85.451	C.2	1	RES1	0.000	
9	 C41	0.510	52.691	-86.464	C.2	1	RES1	0.000	
10	 C42	-0.178	51.489	-86.297	C.2	1	RES1	0.000	
11	 C43	-0.104	50.769	-85.108	C.2	1	RES1	0.000	
12	 C44	0.671	51.322	-84.092	C.2	1	RES1	0.000	
13	 C45	1.338	52.499	-84.248	C.2	1	RES1	0.000	
14	 C46	2.053	52.787	-82.994	C.2	1	RES1	0.000	
15	 C47	2.237	51.619	-80.759	C.3	1	RES1	0.000	
16	 C48	3.704	51.227	-80.666	C.3	1	RES1	0.000	
17	 C49	4.158	51.170	-79.251	C.3	1	RES1	0.000	
18	 C50	3.293	50.241	-78.411	C.2	1	RES1	0.000	
19	 C51	1.378	50.683	-79.929	C.2	1	RES1	0.000	
20	 C52	0.899	50.830	-82.736	C.2	1	RES1	0.000	
@<TRIPOS>BOND
1 5 18 2
2 6 19 2
3 7 20 2
4 1 8 1
5 8 9 ar
6 8 13 ar
7 9 10 ar
8 10 11 ar
9 11 12 ar
10 12 13 ar
11 12 20 ar
12 13 14 ar
13 2 14 ar
14 4 14 2
15 2 15 1
16 15 16 1
17 15 19 1
18 16 17 1
19 17 18 1
20 3 18 1
21 3 19 1
22 2 20 ar
@<TRIPOS>SUBSTRUCTURE
1	RES1	1	GROUP	1 ****	RES
