# created with PyMOL 2.5.2
@<TRIPOS>MOLECULE
ALK_6H0G_E3ligase
20 22 1                 
SMALL
USER_CHARGES
@<TRIPOS>ATOM
1	  O6	2.754	53.725	-82.770	O.2	1	RES1	0.000	
2	  O7	3.752	49.756	-77.417	O.2	1	RES1	0.000	
3	  N8	2.143	54.368	-85.609	N.pl3	1	RES1	0.000	
4	  O8	0.244	50.291	-80.227	O.2	1	RES1	0.000	
5	  N9	1.701	51.704	-82.129	N.2	1	RES1	0.000	
6	  O9	0.312	49.832	-82.278	O.2	1	RES1	0.000	
7	 N10	2.050	50.042	-78.877	N.pl3	1	RES1	0.000	
8	 C36	1.333	53.228	-85.411	C.2	1	RES1	0.000	
9	 C37	0.562	52.690	-86.461	C.2	1	RES1	0.000	
10	 C38	-0.162	51.502	-86.320	C.2	1	RES1	0.000	
11	 C39	-0.141	50.814	-85.097	C.2	1	RES1	0.000	
12	 C40	0.628	51.344	-84.107	C.2	1	RES1	0.000	
13	 C41	1.340	52.492	-84.224	C.2	1	RES1	0.000	
14	 C42	2.049	52.748	-82.959	C.2	1	RES1	0.000	
15	 C43	2.191	51.647	-80.727	C.3	1	RES1	0.000	
16	 C44	3.710	51.351	-80.655	C.3	1	RES1	0.000	
17	 C45	4.114	51.334	-79.183	C.3	1	RES1	0.000	
18	 C46	3.317	50.304	-78.430	C.2	1	RES1	0.000	
19	 C47	1.404	50.586	-79.955	C.2	1	RES1	0.000	
20	 C48	0.827	50.836	-82.731	C.2	1	RES1	0.000	
@<TRIPOS>BOND
1 7 18 1
2 7 19 1
3 3 8 1
4 8 9 ar
5 8 13 ar
6 9 10 ar
7 10 11 ar
8 11 12 ar
9 12 13 ar
10 12 20 ar
11 13 14 ar
12 1 14 2
13 5 14 ar
14 5 15 1
15 15 16 1
16 15 19 1
17 16 17 1
18 17 18 1
19 2 18 2
20 4 19 2
21 5 20 ar
22 6 20 2
@<TRIPOS>SUBSTRUCTURE
1	RES1	1	GROUP	1 ****	RES
