# created with PyMOL 2.5.2
@<TRIPOS>MOLECULE
ALK_6H0G_E3ligase
20 22 1                 
SMALL
USER_CHARGES
@<TRIPOS>ATOM
1	  O6	2.829	53.747	-82.838	O.2	1	RES1	0.000	
2	  O7	3.679	49.699	-77.402	O.2	1	RES1	0.000	
3	  N8	1.987	54.448	-85.610	N.pl3	1	RES1	0.000	
4	  O8	0.217	50.425	-80.217	O.2	1	RES1	0.000	
5	  N9	1.728	51.763	-82.128	N.2	1	RES1	0.000	
6	  O9	0.425	49.840	-82.262	O.2	1	RES1	0.000	
7	 N10	1.997	50.091	-78.854	N.pl3	1	RES1	0.000	
8	 C38	1.339	53.200	-85.446	C.2	1	RES1	0.000	
9	 C39	0.513	52.675	-86.460	C.2	1	RES1	0.000	
10	 C40	-0.199	51.476	-86.298	C.2	1	RES1	0.000	
11	 C41	-0.139	50.795	-85.061	C.2	1	RES1	0.000	
12	 C42	0.663	51.338	-84.070	C.2	1	RES1	0.000	
13	 C43	1.360	52.504	-84.253	C.2	1	RES1	0.000	
14	 C44	2.060	52.780	-82.982	C.2	1	RES1	0.000	
15	 C45	2.245	51.631	-80.748	C.3	1	RES1	0.000	
16	 C46	3.729	51.261	-80.662	C.3	1	RES1	0.000	
17	 C47	4.143	51.193	-79.215	C.3	1	RES1	0.000	
18	 C48	3.273	50.233	-78.392	C.2	1	RES1	0.000	
19	 C49	1.378	50.644	-79.959	C.2	1	RES1	0.000	
20	 C50	0.896	50.848	-82.708	C.2	1	RES1	0.000	
@<TRIPOS>BOND
1 7 18 1
2 7 19 1
3 3 8 1
4 8 9 ar
5 8 13 ar
6 9 10 ar
7 10 11 ar
8 11 12 ar
9 12 13 ar
10 12 20 ar
11 13 14 ar
12 1 14 2
13 5 14 ar
14 5 15 1
15 15 16 1
16 15 19 1
17 16 17 1
18 17 18 1
19 2 18 2
20 4 19 2
21 5 20 ar
22 6 20 2
@<TRIPOS>SUBSTRUCTURE
1	RES1	1	GROUP	1 ****	RES
