# created with PyMOL 2.5.2
@<TRIPOS>MOLECULE
ALK_6H0G_E3ligase
20 22 1                 
SMALL
USER_CHARGES
@<TRIPOS>ATOM
1	  O6	2.816	53.736	-82.836	O.2	1	RES1	0.000	
2	  O7	3.674	49.713	-77.397	O.2	1	RES1	0.000	
3	  N8	1.988	54.430	-85.605	N.pl3	1	RES1	0.000	
4	  O8	0.208	50.405	-80.225	O.2	1	RES1	0.000	
5	  N9	1.727	51.774	-82.131	N.2	1	RES1	0.000	
6	  O9	0.422	49.821	-82.256	O.2	1	RES1	0.000	
7	 N10	1.998	50.069	-78.879	N.pl3	1	RES1	0.000	
8	 C40	1.343	53.215	-85.452	C.2	1	RES1	0.000	
9	 C41	0.537	52.700	-86.481	C.2	1	RES1	0.000	
10	 C42	-0.200	51.490	-86.279	C.2	1	RES1	0.000	
11	 C43	-0.134	50.791	-85.073	C.2	1	RES1	0.000	
12	 C44	0.635	51.325	-84.075	C.2	1	RES1	0.000	
13	 C45	1.364	52.492	-84.243	C.2	1	RES1	0.000	
14	 C46	2.058	52.781	-82.994	C.2	1	RES1	0.000	
15	 C47	2.244	51.639	-80.744	C.3	1	RES1	0.000	
16	 C48	3.722	51.260	-80.660	C.3	1	RES1	0.000	
17	 C49	4.143	51.200	-79.184	C.3	1	RES1	0.000	
18	 C50	3.299	50.245	-78.409	C.2	1	RES1	0.000	
19	 C51	1.402	50.648	-79.956	C.2	1	RES1	0.000	
20	 C52	0.878	50.858	-82.688	C.2	1	RES1	0.000	
@<TRIPOS>BOND
1 7 18 1
2 7 19 1
3 3 8 1
4 8 9 ar
5 8 13 ar
6 9 10 ar
7 10 11 ar
8 11 12 ar
9 12 13 ar
10 12 20 ar
11 13 14 ar
12 1 14 2
13 5 14 ar
14 5 15 1
15 15 16 1
16 15 19 1
17 16 17 1
18 17 18 1
19 2 18 2
20 4 19 2
21 5 20 ar
22 6 20 2
@<TRIPOS>SUBSTRUCTURE
1	RES1	1	GROUP	1 ****	RES
