# created with PyMOL 2.5.2
@<TRIPOS>MOLECULE
ALK_6H0G_E3ligase
20 22 1                 
SMALL
USER_CHARGES
@<TRIPOS>ATOM
1	  O7	2.823	53.727	-82.857	O.2	1	RES1	0.000	
2	  N8	1.995	54.451	-85.607	N.pl3	1	RES1	0.000	
3	  O8	3.674	49.702	-77.385	O.2	1	RES1	0.000	
4	  N9	1.740	51.758	-82.118	N.2	1	RES1	0.000	
5	  O9	0.205	50.441	-80.230	O.2	1	RES1	0.000	
6	 N10	2.007	50.080	-78.857	N.pl3	1	RES1	0.000	
7	 O10	0.422	49.812	-82.240	O.2	1	RES1	0.000	
8	 C36	1.330	53.207	-85.439	C.2	1	RES1	0.000	
9	 C37	0.527	52.694	-86.466	C.2	1	RES1	0.000	
10	 C38	-0.199	51.495	-86.273	C.2	1	RES1	0.000	
11	 C39	-0.138	50.792	-85.081	C.2	1	RES1	0.000	
12	 C40	0.650	51.322	-84.057	C.2	1	RES1	0.000	
13	 C41	1.344	52.506	-84.245	C.2	1	RES1	0.000	
14	 C42	2.060	52.782	-83.001	C.2	1	RES1	0.000	
15	 C43	2.251	51.626	-80.754	C.3	1	RES1	0.000	
16	 C44	3.749	51.256	-80.661	C.3	1	RES1	0.000	
17	 C45	4.146	51.190	-79.203	C.3	1	RES1	0.000	
18	 C46	3.262	50.256	-78.395	C.2	1	RES1	0.000	
19	 C47	1.392	50.641	-79.982	C.2	1	RES1	0.000	
20	 C48	0.885	50.853	-82.714	C.2	1	RES1	0.000	
@<TRIPOS>BOND
1 6 18 1
2 6 19 1
3 7 20 2
4 2 8 1
5 8 9 ar
6 8 13 ar
7 9 10 ar
8 10 11 ar
9 11 12 ar
10 12 13 ar
11 12 20 ar
12 13 14 ar
13 1 14 2
14 4 14 ar
15 4 15 1
16 15 16 1
17 15 19 1
18 16 17 1
19 17 18 1
20 3 18 2
21 5 19 2
22 4 20 ar
@<TRIPOS>SUBSTRUCTURE
1	RES1	1	GROUP	1 ****	RES
