# created with PyMOL 2.5.2
@<TRIPOS>MOLECULE
ALK_6H0G_E3ligase
20 22 1                 
SMALL
USER_CHARGES
@<TRIPOS>ATOM
1	  N8	1.963	54.416	-85.617	N.pl3	1	RES1	0.000	
2	  O8	2.819	53.760	-82.869	O.2	1	RES1	0.000	
3	  N9	1.739	51.813	-82.110	N.2	1	RES1	0.000	
4	  O9	3.663	49.644	-77.412	O.3	1	RES1	0.000	
5	 N10	1.992	50.035	-78.896	N.pl3	1	RES1	0.000	
6	 O10	0.217	50.405	-80.262	O.2	1	RES1	0.000	
7	 O11	0.434	49.857	-82.203	O.2	1	RES1	0.000	
8	 C38	1.340	53.184	-85.463	C.2	1	RES1	0.000	
9	 C39	0.525	52.651	-86.461	C.2	1	RES1	0.000	
10	 C40	-0.194	51.464	-86.267	C.2	1	RES1	0.000	
11	 C41	-0.122	50.771	-85.036	C.2	1	RES1	0.000	
12	 C42	0.667	51.351	-84.048	C.2	1	RES1	0.000	
13	 C43	1.353	52.517	-84.224	C.2	1	RES1	0.000	
14	 C44	2.071	52.819	-82.998	C.2	1	RES1	0.000	
15	 C45	2.225	51.677	-80.749	C.3	1	RES1	0.000	
16	 C46	3.712	51.291	-80.650	C.3	1	RES1	0.000	
17	 C47	4.147	51.200	-79.197	C.3	1	RES1	0.000	
18	 C48	3.273	50.214	-78.421	C.3	1	RES1	0.000	
19	 C49	1.393	50.630	-79.996	C.2	1	RES1	0.000	
20	 C50	0.907	50.893	-82.686	C.2	1	RES1	0.000	
@<TRIPOS>BOND
1 5 18 1
2 5 19 1
3 6 19 2
4 7 20 2
5 1 8 1
6 8 9 ar
7 8 13 ar
8 9 10 ar
9 10 11 ar
10 11 12 ar
11 12 13 ar
12 12 20 ar
13 13 14 ar
14 2 14 2
15 3 14 ar
16 3 15 1
17 15 16 1
18 15 19 1
19 16 17 1
20 17 18 1
21 4 18 1
22 3 20 ar
@<TRIPOS>SUBSTRUCTURE
1	RES1	1	GROUP	1 ****	RES
