# created with PyMOL 2.5.2
@<TRIPOS>MOLECULE
ALK_6H0G_E3ligase
20 22 1                 
SMALL
USER_CHARGES
@<TRIPOS>ATOM
1	  N8	1.966	54.457	-85.604	N.pl3	1	RES1	0.000	
2	  N9	1.717	51.774	-82.110	N.2	1	RES1	0.000	
3	  O9	2.815	53.757	-82.851	O.2	1	RES1	0.000	
4	 N10	2.007	50.088	-78.830	N.pl3	1	RES1	0.000	
5	 O10	3.693	49.677	-77.393	O.2	1	RES1	0.000	
6	 O11	0.190	50.448	-80.186	O.2	1	RES1	0.000	
7	 O12	0.416	49.804	-82.260	O.2	1	RES1	0.000	
8	 C40	1.321	53.200	-85.434	C.2	1	RES1	0.000	
9	 C41	0.527	52.683	-86.487	C.2	1	RES1	0.000	
10	 C42	-0.172	51.477	-86.283	C.2	1	RES1	0.000	
11	 C43	-0.112	50.782	-85.086	C.2	1	RES1	0.000	
12	 C44	0.669	51.331	-84.084	C.2	1	RES1	0.000	
13	 C45	1.370	52.511	-84.242	C.2	1	RES1	0.000	
14	 C46	2.059	52.790	-82.993	C.2	1	RES1	0.000	
15	 C47	2.237	51.635	-80.741	C.3	1	RES1	0.000	
16	 C48	3.702	51.240	-80.687	C.3	1	RES1	0.000	
17	 C49	4.163	51.192	-79.239	C.3	1	RES1	0.000	
18	 C50	3.283	50.248	-78.412	C.2	1	RES1	0.000	
19	 C51	1.374	50.651	-79.939	C.2	1	RES1	0.000	
20	 C52	0.899	50.847	-82.704	C.2	1	RES1	0.000	
@<TRIPOS>BOND
1 4 18 1
2 4 19 1
3 5 18 2
4 6 19 2
5 7 20 2
6 1 8 1
7 8 9 ar
8 8 13 ar
9 9 10 ar
10 10 11 ar
11 11 12 ar
12 12 13 ar
13 12 20 ar
14 13 14 ar
15 2 14 ar
16 3 14 2
17 2 15 1
18 15 16 1
19 15 19 1
20 16 17 1
21 17 18 1
22 2 20 ar
@<TRIPOS>SUBSTRUCTURE
1	RES1	1	GROUP	1 ****	RES
