# created with PyMOL 2.5.2
@<TRIPOS>MOLECULE
ALK_6H0G_E3ligase
20 22 1                 
SMALL
USER_CHARGES
@<TRIPOS>ATOM
1	  O6	2.830	53.763	-82.866	O.2	1	RES1	0.000	
2	  O7	3.681	49.679	-77.414	O.2	1	RES1	0.000	
3	  N8	1.969	54.442	-85.610	N.pl3	1	RES1	0.000	
4	  O8	0.194	50.438	-80.196	O.2	1	RES1	0.000	
5	  N9	1.730	51.795	-82.116	N.2	1	RES1	0.000	
6	  O9	0.448	49.822	-82.245	O.2	1	RES1	0.000	
7	 N10	1.986	50.070	-78.868	N.pl3	1	RES1	0.000	
8	 C37	1.321	53.194	-85.446	C.2	1	RES1	0.000	
9	 C38	0.515	52.662	-86.465	C.2	1	RES1	0.000	
10	 C39	-0.198	51.474	-86.276	C.2	1	RES1	0.000	
11	 C40	-0.125	50.784	-85.073	C.2	1	RES1	0.000	
12	 C41	0.678	51.334	-84.057	C.2	1	RES1	0.000	
13	 C42	1.358	52.505	-84.247	C.2	1	RES1	0.000	
14	 C43	2.086	52.814	-83.004	C.2	1	RES1	0.000	
15	 C44	2.244	51.656	-80.738	C.3	1	RES1	0.000	
16	 C45	3.707	51.252	-80.682	C.3	1	RES1	0.000	
17	 C46	4.143	51.167	-79.202	C.3	1	RES1	0.000	
18	 C47	3.276	50.220	-78.415	C.2	1	RES1	0.000	
19	 C48	1.364	50.649	-79.947	C.2	1	RES1	0.000	
20	 C49	0.917	50.872	-82.699	C.2	1	RES1	0.000	
@<TRIPOS>BOND
1 7 18 1
2 7 19 1
3 3 8 1
4 8 9 ar
5 8 13 ar
6 9 10 ar
7 10 11 ar
8 11 12 ar
9 12 13 ar
10 12 20 ar
11 13 14 ar
12 1 14 2
13 5 14 ar
14 5 15 1
15 15 16 1
16 15 19 1
17 16 17 1
18 17 18 1
19 2 18 2
20 4 19 2
21 5 20 ar
22 6 20 2
@<TRIPOS>SUBSTRUCTURE
1	RES1	1	GROUP	1 ****	RES
