# created with PyMOL 2.5.2
@<TRIPOS>MOLECULE
ALK_6H0G_E3ligase
20 22 1                 
SMALL
USER_CHARGES
@<TRIPOS>ATOM
1	  O6	2.812	53.761	-82.826	O.2	1	RES1	0.000	
2	  O7	3.680	49.639	-77.423	O.3	1	RES1	0.000	
3	  N8	1.948	54.452	-85.613	N.pl3	1	RES1	0.000	
4	  O8	0.204	50.476	-80.217	O.2	1	RES1	0.000	
5	  N9	1.735	51.804	-82.121	N.2	1	RES1	0.000	
6	  O9	0.447	49.824	-82.246	O.2	1	RES1	0.000	
7	 N10	1.982	50.073	-78.878	N.pl3	1	RES1	0.000	
8	 C39	1.331	53.197	-85.442	C.2	1	RES1	0.000	
9	 C40	0.516	52.686	-86.453	C.2	1	RES1	0.000	
10	 C41	-0.192	51.445	-86.274	C.2	1	RES1	0.000	
11	 C42	-0.100	50.769	-85.072	C.2	1	RES1	0.000	
12	 C43	0.656	51.337	-84.096	C.2	1	RES1	0.000	
13	 C44	1.358	52.497	-84.236	C.2	1	RES1	0.000	
14	 C45	2.076	52.803	-82.993	C.2	1	RES1	0.000	
15	 C46	2.241	51.656	-80.744	C.3	1	RES1	0.000	
16	 C47	3.707	51.257	-80.667	C.3	1	RES1	0.000	
17	 C48	4.144	51.164	-79.206	C.3	1	RES1	0.000	
18	 C49	3.277	50.227	-78.429	C.3	1	RES1	0.000	
19	 C50	1.387	50.680	-79.943	C.2	1	RES1	0.000	
20	 C51	0.918	50.848	-82.689	C.2	1	RES1	0.000	
@<TRIPOS>BOND
1 7 18 1
2 7 19 1
3 3 8 1
4 8 9 ar
5 8 13 ar
6 9 10 ar
7 10 11 ar
8 11 12 ar
9 12 13 ar
10 12 20 ar
11 13 14 ar
12 1 14 2
13 5 14 ar
14 5 15 1
15 15 16 1
16 15 19 1
17 16 17 1
18 17 18 1
19 2 18 1
20 4 19 2
21 5 20 ar
22 6 20 2
@<TRIPOS>SUBSTRUCTURE
1	RES1	1	GROUP	1 ****	RES
