# created with PyMOL 2.5.2
@<TRIPOS>MOLECULE
ALK_6H0G_E3ligase
20 22 1                 
SMALL
USER_CHARGES
@<TRIPOS>ATOM
1	  O7	2.776	53.720	-82.790	O.2	1	RES1	0.000	
2	  N8	2.119	54.368	-85.590	N.pl3	1	RES1	0.000	
3	  O8	3.722	49.780	-77.360	O.2	1	RES1	0.000	
4	  N9	1.739	51.696	-82.137	N.2	1	RES1	0.000	
5	  O9	0.246	50.333	-80.239	O.2	1	RES1	0.000	
6	 N10	2.049	50.050	-78.878	N.pl3	1	RES1	0.000	
7	 O10	0.317	49.823	-82.286	O.2	1	RES1	0.000	
8	 C37	1.335	53.235	-85.425	C.2	1	RES1	0.000	
9	 C38	0.544	52.714	-86.465	C.2	1	RES1	0.000	
10	 C39	-0.206	51.529	-86.301	C.2	1	RES1	0.000	
11	 C40	-0.172	50.822	-85.117	C.2	1	RES1	0.000	
12	 C41	0.623	51.328	-84.079	C.2	1	RES1	0.000	
13	 C42	1.357	52.490	-84.239	C.2	1	RES1	0.000	
14	 C43	2.050	52.730	-82.998	C.2	1	RES1	0.000	
15	 C44	2.213	51.615	-80.743	C.3	1	RES1	0.000	
16	 C45	3.716	51.331	-80.629	C.3	1	RES1	0.000	
17	 C46	4.105	51.307	-79.180	C.3	1	RES1	0.000	
18	 C47	3.310	50.304	-78.391	C.2	1	RES1	0.000	
19	 C48	1.425	50.600	-79.961	C.2	1	RES1	0.000	
20	 C49	0.858	50.817	-82.757	C.2	1	RES1	0.000	
@<TRIPOS>BOND
1 6 18 1
2 6 19 1
3 7 20 2
4 2 8 1
5 8 9 ar
6 8 13 ar
7 9 10 ar
8 10 11 ar
9 11 12 ar
10 12 13 ar
11 12 20 ar
12 13 14 ar
13 1 14 2
14 4 14 ar
15 4 15 1
16 15 16 1
17 15 19 1
18 16 17 1
19 17 18 1
20 3 18 2
21 5 19 2
22 4 20 ar
@<TRIPOS>SUBSTRUCTURE
1	RES1	1	GROUP	1 ****	RES
