# created with PyMOL 2.5.2
@<TRIPOS>MOLECULE
SIRT2_7BQU_E3ligase
19 21 1                 
SMALL
USER_CHARGES
@<TRIPOS>ATOM
1	  O5	27.370	17.225	11.962	O.2	1	RES1	0.000	
2	  N6	25.407	17.713	13.135	N.2	1	RES1	0.000	
3	  O6	26.364	20.294	17.915	O.2	1	RES1	0.000	
4	  N7	25.097	19.873	16.075	N.pl3	1	RES1	0.000	
5	  O7	23.739	19.638	14.253	O.2	1	RES1	0.000	
6	  O8	23.099	17.688	13.663	O.2	1	RES1	0.000	
7	 C27	25.559	15.514	10.253	C.2	1	RES1	0.000	
8	 C28	24.491	14.846	9.655	C.2	1	RES1	0.000	
9	 C29	23.168	14.956	10.187	C.2	1	RES1	0.000	
10	 C30	22.942	15.766	11.290	C.2	1	RES1	0.000	
11	 C31	24.021	16.426	11.852	C.2	1	RES1	0.000	
12	 C32	25.290	16.293	11.332	C.2	1	RES1	0.000	
13	 C33	26.181	17.126	12.166	C.2	1	RES1	0.000	
14	 C34	25.947	18.638	14.132	C.3	1	RES1	0.000	
15	 C35	26.847	17.941	15.175	C.3	1	RES1	0.000	
16	 C36	27.368	19.003	16.166	C.3	1	RES1	0.000	
17	 C37	26.224	19.764	16.805	C.2	1	RES1	0.000	
18	 C38	24.802	19.405	14.821	C.2	1	RES1	0.000	
19	 C39	24.078	17.344	13.006	C.2	1	RES1	0.000	
@<TRIPOS>BOND
1 7 8 ar
2 7 12 ar
3 8 9 ar
4 9 10 ar
5 10 11 ar
6 11 12 ar
7 11 19 ar
8 12 13 ar
9 1 13 2
10 2 13 ar
11 2 14 1
12 14 15 1
13 14 18 1
14 15 16 1
15 16 17 1
16 3 17 2
17 4 17 1
18 4 18 1
19 5 18 2
20 2 19 ar
21 6 19 2
@<TRIPOS>SUBSTRUCTURE
1	RES1	1	GROUP	1 ****	RES
