# created with PyMOL 2.5.2
@<TRIPOS>MOLECULE
ALK_6H0G_E3ligase
20 22 1                 
SMALL
USER_CHARGES
@<TRIPOS>ATOM
1	  N8	1.981	54.437	-85.611	N.pl3	1	RES1	0.000	
2	  O8	2.787	53.742	-82.843	O.2	1	RES1	0.000	
3	  N9	1.707	51.763	-82.107	N.2	1	RES1	0.000	
4	  O9	3.709	49.726	-77.402	O.2	1	RES1	0.000	
5	 N10	2.003	50.064	-78.855	N.pl3	1	RES1	0.000	
6	 O10	0.203	50.413	-80.184	O.2	1	RES1	0.000	
7	 O11	0.423	49.835	-82.256	O.2	1	RES1	0.000	
8	 C39	1.357	53.200	-85.449	C.2	1	RES1	0.000	
9	 C40	0.539	52.672	-86.478	C.2	1	RES1	0.000	
10	 C41	-0.168	51.486	-86.300	C.2	1	RES1	0.000	
11	 C42	-0.126	50.799	-85.085	C.2	1	RES1	0.000	
12	 C43	0.655	51.331	-84.063	C.2	1	RES1	0.000	
13	 C44	1.351	52.514	-84.240	C.2	1	RES1	0.000	
14	 C45	2.057	52.802	-82.984	C.2	1	RES1	0.000	
15	 C46	2.219	51.628	-80.742	C.3	1	RES1	0.000	
16	 C47	3.707	51.243	-80.660	C.3	1	RES1	0.000	
17	 C48	4.151	51.204	-79.232	C.3	1	RES1	0.000	
18	 C49	3.300	50.239	-78.418	C.2	1	RES1	0.000	
19	 C50	1.381	50.634	-79.937	C.2	1	RES1	0.000	
20	 C51	0.889	50.859	-82.722	C.2	1	RES1	0.000	
@<TRIPOS>BOND
1 5 18 1
2 5 19 1
3 6 19 2
4 7 20 2
5 1 8 1
6 8 9 ar
7 8 13 ar
8 9 10 ar
9 10 11 ar
10 11 12 ar
11 12 13 ar
12 12 20 ar
13 13 14 ar
14 2 14 2
15 3 14 ar
16 3 15 1
17 15 16 1
18 15 19 1
19 16 17 1
20 17 18 1
21 4 18 2
22 3 20 ar
@<TRIPOS>SUBSTRUCTURE
1	RES1	1	GROUP	1 ****	RES
