# created with PyMOL 2.5.2
@<TRIPOS>MOLECULE
ALK_7BQU_E3ligase
19 21 1                 
SMALL
USER_CHARGES
@<TRIPOS>ATOM
1	  O7	27.391	17.218	11.990	O.2	1	RES1	0.000	
2	  N8	25.379	17.694	13.137	N.2	1	RES1	0.000	
3	  O8	26.396	20.281	17.898	O.2	1	RES1	0.000	
4	  N9	25.090	19.859	16.119	N.pl3	1	RES1	0.000	
5	  O9	23.695	19.577	14.351	O.2	1	RES1	0.000	
6	 O10	23.088	17.715	13.603	O.2	1	RES1	0.000	
7	 C36	25.573	15.481	10.255	C.2	1	RES1	0.000	
8	 C37	24.493	14.804	9.685	C.2	1	RES1	0.000	
9	 C38	23.190	14.962	10.181	C.2	1	RES1	0.000	
10	 C39	22.938	15.777	11.261	C.2	1	RES1	0.000	
11	 C40	24.017	16.436	11.862	C.2	1	RES1	0.000	
12	 C41	25.288	16.308	11.359	C.2	1	RES1	0.000	
13	 C42	26.189	17.139	12.165	C.2	1	RES1	0.000	
14	 C43	25.915	18.646	14.117	C.3	1	RES1	0.000	
15	 C44	26.845	17.999	15.136	C.3	1	RES1	0.000	
16	 C45	27.402	19.035	16.102	C.3	1	RES1	0.000	
17	 C46	26.259	19.773	16.790	C.2	1	RES1	0.000	
18	 C47	24.779	19.393	14.854	C.2	1	RES1	0.000	
19	 C48	24.067	17.355	12.975	C.2	1	RES1	0.000	
@<TRIPOS>BOND
1 6 19 2
2 7 8 ar
3 7 12 ar
4 8 9 ar
5 9 10 ar
6 10 11 ar
7 11 12 ar
8 11 19 ar
9 12 13 ar
10 1 13 2
11 2 13 ar
12 2 14 1
13 14 15 1
14 14 18 1
15 15 16 1
16 16 17 1
17 3 17 2
18 4 17 1
19 4 18 1
20 5 18 2
21 2 19 ar
@<TRIPOS>SUBSTRUCTURE
1	RES1	1	GROUP	1 ****	RES
