# created with PyMOL 2.5.2
@<TRIPOS>MOLECULE
ALK_7BQU_E3ligase
19 21 1                 
SMALL
USER_CHARGES
@<TRIPOS>ATOM
1	  O7	27.389	17.215	11.957	O.2	1	RES1	0.000	
2	  N8	25.424	17.701	13.125	N.2	1	RES1	0.000	
3	  O8	26.344	20.289	17.907	O.2	1	RES1	0.000	
4	  N9	25.063	19.869	16.064	N.pl3	1	RES1	0.000	
5	  O9	23.718	19.581	14.268	O.2	1	RES1	0.000	
6	 O10	23.086	17.706	13.650	O.2	1	RES1	0.000	
7	 C38	25.557	15.501	10.245	C.2	1	RES1	0.000	
8	 C39	24.468	14.834	9.683	C.2	1	RES1	0.000	
9	 C40	23.189	14.980	10.188	C.2	1	RES1	0.000	
10	 C41	22.933	15.791	11.293	C.2	1	RES1	0.000	
11	 C42	24.008	16.439	11.858	C.2	1	RES1	0.000	
12	 C43	25.291	16.302	11.335	C.2	1	RES1	0.000	
13	 C44	26.197	17.115	12.143	C.2	1	RES1	0.000	
14	 C45	25.971	18.652	14.161	C.3	1	RES1	0.000	
15	 C46	26.849	17.976	15.174	C.3	1	RES1	0.000	
16	 C47	27.376	19.016	16.157	C.3	1	RES1	0.000	
17	 C48	26.242	19.759	16.815	C.2	1	RES1	0.000	
18	 C49	24.790	19.366	14.825	C.2	1	RES1	0.000	
19	 C50	24.099	17.361	12.989	C.2	1	RES1	0.000	
@<TRIPOS>BOND
1 6 19 2
2 7 8 ar
3 7 12 ar
4 8 9 ar
5 9 10 ar
6 10 11 ar
7 11 12 ar
8 11 19 ar
9 12 13 ar
10 1 13 2
11 2 13 ar
12 2 14 1
13 14 15 1
14 14 18 1
15 15 16 1
16 16 17 1
17 3 17 2
18 4 17 1
19 4 18 1
20 5 18 2
21 2 19 ar
@<TRIPOS>SUBSTRUCTURE
1	RES1	1	GROUP	1 ****	RES
