# created with PyMOL 2.5.2
@<TRIPOS>MOLECULE
ALK_7BQU_E3ligase
19 21 1                 
SMALL
USER_CHARGES
@<TRIPOS>ATOM
1	  O7	27.396	17.223	11.964	O.2	1	RES1	0.000	
2	  N8	25.416	17.685	13.154	N.2	1	RES1	0.000	
3	  O8	26.351	20.303	17.901	O.2	1	RES1	0.000	
4	  N9	25.070	19.897	16.074	N.pl3	1	RES1	0.000	
5	  O9	23.737	19.622	14.262	O.2	1	RES1	0.000	
6	 O10	23.113	17.694	13.660	O.2	1	RES1	0.000	
7	 C40	25.551	15.510	10.222	C.2	1	RES1	0.000	
8	 C41	24.465	14.840	9.649	C.2	1	RES1	0.000	
9	 C42	23.167	14.975	10.166	C.2	1	RES1	0.000	
10	 C43	22.937	15.783	11.271	C.2	1	RES1	0.000	
11	 C44	24.029	16.440	11.844	C.2	1	RES1	0.000	
12	 C45	25.291	16.299	11.368	C.2	1	RES1	0.000	
13	 C46	26.190	17.089	12.165	C.2	1	RES1	0.000	
14	 C47	25.937	18.609	14.154	C.3	1	RES1	0.000	
15	 C48	26.835	17.948	15.203	C.3	1	RES1	0.000	
16	 C49	27.369	19.016	16.170	C.3	1	RES1	0.000	
17	 C50	26.248	19.789	16.801	C.2	1	RES1	0.000	
18	 C51	24.817	19.389	14.807	C.2	1	RES1	0.000	
19	 C52	24.072	17.342	13.003	C.2	1	RES1	0.000	
@<TRIPOS>BOND
1 6 19 2
2 7 8 ar
3 7 12 ar
4 8 9 ar
5 9 10 ar
6 10 11 ar
7 11 12 ar
8 11 19 ar
9 12 13 ar
10 1 13 2
11 2 13 ar
12 2 14 1
13 14 15 1
14 14 18 1
15 15 16 1
16 16 17 1
17 3 17 2
18 4 17 1
19 4 18 1
20 5 18 2
21 2 19 ar
@<TRIPOS>SUBSTRUCTURE
1	RES1	1	GROUP	1 ****	RES
