# created with PyMOL 2.5.2
@<TRIPOS>MOLECULE
ALK_7BQU_E3ligase
19 21 1                 
SMALL
USER_CHARGES
@<TRIPOS>ATOM
1	  N8	25.428	17.696	13.116	N.2	1	RES1	0.000	
2	  O8	27.408	17.230	11.925	O.2	1	RES1	0.000	
3	  N9	25.057	19.885	16.052	N.pl3	1	RES1	0.000	
4	  O9	26.311	20.279	17.916	O.2	1	RES1	0.000	
5	 O10	23.742	19.623	14.248	O.2	1	RES1	0.000	
6	 O11	23.148	17.706	13.648	O.2	1	RES1	0.000	
7	 C36	25.524	15.496	10.240	C.2	1	RES1	0.000	
8	 C37	24.445	14.828	9.659	C.2	1	RES1	0.000	
9	 C38	23.172	14.973	10.219	C.2	1	RES1	0.000	
10	 C39	22.919	15.789	11.316	C.2	1	RES1	0.000	
11	 C40	24.044	16.458	11.855	C.2	1	RES1	0.000	
12	 C41	25.288	16.304	11.343	C.2	1	RES1	0.000	
13	 C42	26.218	17.110	12.151	C.2	1	RES1	0.000	
14	 C43	25.991	18.624	14.155	C.3	1	RES1	0.000	
15	 C44	26.851	17.951	15.189	C.3	1	RES1	0.000	
16	 C45	27.342	18.991	16.166	C.3	1	RES1	0.000	
17	 C46	26.205	19.746	16.818	C.2	1	RES1	0.000	
18	 C47	24.792	19.388	14.816	C.2	1	RES1	0.000	
19	 C48	24.108	17.376	13.007	C.2	1	RES1	0.000	
@<TRIPOS>BOND
1 5 18 2
2 6 19 2
3 7 8 ar
4 7 12 ar
5 8 9 ar
6 9 10 ar
7 10 11 ar
8 11 12 ar
9 11 19 ar
10 12 13 ar
11 1 13 ar
12 2 13 2
13 1 14 1
14 14 15 1
15 14 18 1
16 15 16 1
17 16 17 1
18 3 17 1
19 4 17 2
20 3 18 1
21 1 19 ar
@<TRIPOS>SUBSTRUCTURE
1	RES1	1	GROUP	1 ****	RES
