# created with PyMOL 2.5.2
@<TRIPOS>MOLECULE
ALK_7BQU_E3ligase
19 21 1                 
SMALL
USER_CHARGES
@<TRIPOS>ATOM
1	  N8	25.400	17.681	13.151	N.2	1	RES1	0.000	
2	  N9	25.088	19.898	16.068	N.pl3	1	RES1	0.000	
3	  O9	27.389	17.207	11.975	O.2	1	RES1	0.000	
4	 O10	26.379	20.317	17.900	O.2	1	RES1	0.000	
5	 O11	23.730	19.583	14.290	O.2	1	RES1	0.000	
6	 O12	23.098	17.681	13.633	O.2	1	RES1	0.000	
7	 C38	25.560	15.492	10.246	C.2	1	RES1	0.000	
8	 C39	24.481	14.817	9.646	C.2	1	RES1	0.000	
9	 C40	23.190	14.990	10.148	C.2	1	RES1	0.000	
10	 C41	22.925	15.784	11.274	C.2	1	RES1	0.000	
11	 C42	24.017	16.460	11.844	C.2	1	RES1	0.000	
12	 C43	25.301	16.296	11.368	C.2	1	RES1	0.000	
13	 C44	26.173	17.123	12.185	C.2	1	RES1	0.000	
14	 C45	25.915	18.630	14.146	C.3	1	RES1	0.000	
15	 C46	26.849	17.968	15.183	C.3	1	RES1	0.000	
16	 C47	27.389	19.027	16.131	C.3	1	RES1	0.000	
17	 C48	26.258	19.783	16.807	C.2	1	RES1	0.000	
18	 C49	24.784	19.369	14.852	C.2	1	RES1	0.000	
19	 C50	24.067	17.350	12.991	C.2	1	RES1	0.000	
@<TRIPOS>BOND
1 4 17 2
2 5 18 2
3 6 19 2
4 7 8 ar
5 7 12 ar
6 8 9 ar
7 9 10 ar
8 10 11 ar
9 11 12 ar
10 11 19 ar
11 12 13 ar
12 1 13 ar
13 3 13 2
14 1 14 1
15 14 15 1
16 14 18 1
17 15 16 1
18 16 17 1
19 2 17 1
20 2 18 1
21 1 19 ar
@<TRIPOS>SUBSTRUCTURE
1	RES1	1	GROUP	1 ****	RES
