# created with PyMOL 2.5.2
@<TRIPOS>MOLECULE
ALK_7BQU_E3ligase
19 21 1                 
SMALL
USER_CHARGES
@<TRIPOS>ATOM
1	  N8	25.431	17.695	13.150	N.2	1	RES1	0.000	
2	  N9	25.071	19.890	16.044	N.pl3	1	RES1	0.000	
3	 O10	27.392	17.214	11.945	O.2	1	RES1	0.000	
4	 O11	26.345	20.311	17.900	O.2	1	RES1	0.000	
5	 O12	23.780	19.642	14.227	O.2	1	RES1	0.000	
6	 O13	23.125	17.658	13.680	O.2	1	RES1	0.000	
7	 C40	25.563	15.527	10.232	C.2	1	RES1	0.000	
8	 C41	24.446	14.854	9.659	C.2	1	RES1	0.000	
9	 C42	23.180	14.995	10.152	C.2	1	RES1	0.000	
10	 C43	22.924	15.784	11.316	C.2	1	RES1	0.000	
11	 C44	24.021	16.434	11.861	C.2	1	RES1	0.000	
12	 C45	25.279	16.306	11.345	C.2	1	RES1	0.000	
13	 C46	26.187	17.094	12.166	C.2	1	RES1	0.000	
14	 C47	25.950	18.602	14.152	C.3	1	RES1	0.000	
15	 C48	26.834	17.951	15.212	C.3	1	RES1	0.000	
16	 C49	27.341	18.992	16.195	C.3	1	RES1	0.000	
17	 C50	26.210	19.766	16.800	C.2	1	RES1	0.000	
18	 C51	24.816	19.399	14.793	C.2	1	RES1	0.000	
19	 C52	24.096	17.341	13.012	C.2	1	RES1	0.000	
@<TRIPOS>BOND
1 3 13 2
2 4 17 2
3 5 18 2
4 6 19 2
5 7 8 ar
6 7 12 ar
7 8 9 ar
8 9 10 ar
9 10 11 ar
10 11 12 ar
11 11 19 ar
12 12 13 ar
13 1 13 ar
14 1 14 1
15 14 15 1
16 14 18 1
17 15 16 1
18 16 17 1
19 2 17 1
20 2 18 1
21 1 19 ar
@<TRIPOS>SUBSTRUCTURE
1	RES1	1	GROUP	1 ****	RES
