# created with PyMOL 2.5.2
@<TRIPOS>MOLECULE
EGFR_4TZ4_E3ligase
19 21 1                 
SMALL
USER_CHARGES
@<TRIPOS>ATOM
1	  C1	-46.266	51.148	-95.748	C.2	1	RES1	0.000	
2	  N1	-45.150	55.288	-95.442	N.2	1	RES1	0.000	
3	  O1	-46.599	49.982	-95.941	O.2	1	RES1	0.000	
4	  C2	-46.988	52.023	-94.724	C.3	1	RES1	0.000	
5	  N2	-45.787	58.344	-98.568	N.pl3	1	RES1	0.000	
6	  C3	-46.838	53.489	-95.037	C.3	1	RES1	0.000	
7	  O3	-43.984	55.902	-93.516	O.2	1	RES1	0.000	
8	  C4	-45.366	53.860	-95.174	C.3	1	RES1	0.000	
9	  O4	-43.725	53.365	-96.886	O.2	1	RES1	0.000	
10	  C5	-45.552	55.936	-96.684	C.2	1	RES1	0.000	
11	  C6	-45.026	57.334	-96.486	C.2	1	RES1	0.000	
12	  C7	-45.095	58.422	-97.345	C.2	1	RES1	0.000	
13	 N11	-45.202	51.736	-96.398	N.pl3	1	RES1	0.000	
14	 C41	-44.571	59.645	-96.885	C.2	1	RES1	0.000	
15	 C42	-43.926	59.739	-95.645	C.2	1	RES1	0.000	
16	 C43	-43.847	58.617	-94.814	C.2	1	RES1	0.000	
17	 C44	-44.400	57.438	-95.266	C.2	1	RES1	0.000	
18	 C45	-44.496	56.149	-94.593	C.2	1	RES1	0.000	
19	 C46	-44.703	53.006	-96.270	C.2	1	RES1	0.000	
@<TRIPOS>BOND
1 1 3 2
2 1 4 1
3 1 13 1
4 2 8 1
5 2 10 ar
6 2 18 ar
7 4 6 1
8 5 12 1
9 6 8 1
10 7 18 2
11 8 19 1
12 9 19 2
13 10 11 ar
14 11 12 ar
15 13 19 1
16 12 14 ar
17 14 15 ar
18 15 16 ar
19 16 17 ar
20 11 17 ar
21 17 18 ar
@<TRIPOS>SUBSTRUCTURE
1	RES1	1	GROUP	1 ****	RES
