# created with PyMOL 2.5.2
@<TRIPOS>MOLECULE
EGFR_4TZ4_E3ligase
19 21 1                 
SMALL
USER_CHARGES
@<TRIPOS>ATOM
1	  C1	-46.266	51.161	-95.748	C.2	1	RES1	0.000	
2	  N1	-45.158	55.299	-95.425	N.2	1	RES1	0.000	
3	  O1	-46.583	50.017	-95.949	O.2	1	RES1	0.000	
4	  C2	-46.993	52.004	-94.727	C.3	1	RES1	0.000	
5	  N2	-45.795	58.361	-98.557	N.pl3	1	RES1	0.000	
6	  C3	-46.848	53.481	-95.050	C.3	1	RES1	0.000	
7	  O3	-43.974	55.909	-93.500	O.2	1	RES1	0.000	
8	  C4	-45.357	53.864	-95.176	C.3	1	RES1	0.000	
9	  O4	-43.735	53.374	-96.877	O.2	1	RES1	0.000	
10	  C5	-45.572	55.949	-96.688	C.2	1	RES1	0.000	
11	  C6	-45.044	57.309	-96.476	C.2	1	RES1	0.000	
12	  C7	-45.107	58.413	-97.364	C.2	1	RES1	0.000	
13	 N11	-45.193	51.741	-96.404	N.pl3	1	RES1	0.000	
14	 C41	-44.547	59.633	-96.903	C.2	1	RES1	0.000	
15	 C42	-43.915	59.738	-95.640	C.2	1	RES1	0.000	
16	 C43	-43.845	58.606	-94.828	C.2	1	RES1	0.000	
17	 C44	-44.415	57.429	-95.270	C.2	1	RES1	0.000	
18	 C45	-44.482	56.128	-94.589	C.2	1	RES1	0.000	
19	 C46	-44.692	53.007	-96.250	C.2	1	RES1	0.000	
@<TRIPOS>BOND
1 1 3 2
2 1 4 1
3 1 13 1
4 2 8 1
5 2 10 ar
6 2 18 ar
7 4 6 1
8 5 12 1
9 6 8 1
10 7 18 2
11 8 19 1
12 9 19 2
13 10 11 ar
14 11 12 ar
15 13 19 1
16 12 14 ar
17 14 15 ar
18 15 16 ar
19 16 17 ar
20 11 17 ar
21 17 18 ar
@<TRIPOS>SUBSTRUCTURE
1	RES1	1	GROUP	1 ****	RES
