# created with PyMOL 2.5.2
@<TRIPOS>MOLECULE
EGFR_4TZ4_E3ligase
19 21 1                 
SMALL
USER_CHARGES
@<TRIPOS>ATOM
1	  C1	-46.272	51.161	-95.771	C.2	1	RES1	0.000	
2	  N1	-45.168	55.303	-95.425	N.2	1	RES1	0.000	
3	  O1	-46.580	50.007	-95.971	O.2	1	RES1	0.000	
4	  C2	-46.963	51.995	-94.700	C.3	1	RES1	0.000	
5	  N2	-45.737	58.323	-98.614	N.pl3	1	RES1	0.000	
6	  C3	-46.834	53.487	-95.028	C.3	1	RES1	0.000	
7	  O3	-44.003	55.916	-93.488	O.2	1	RES1	0.000	
8	  C4	-45.370	53.855	-95.158	C.3	1	RES1	0.000	
9	  O4	-43.750	53.399	-96.911	O.2	1	RES1	0.000	
10	  C5	-45.586	55.931	-96.675	C.2	1	RES1	0.000	
11	  C6	-45.061	57.340	-96.475	C.2	1	RES1	0.000	
12	  C7	-45.165	58.430	-97.323	C.2	1	RES1	0.000	
13	 N11	-45.201	51.741	-96.421	N.pl3	1	RES1	0.000	
14	 C41	-44.533	59.627	-96.894	C.2	1	RES1	0.000	
15	 C42	-43.895	59.715	-95.676	C.2	1	RES1	0.000	
16	 C43	-43.823	58.616	-94.816	C.2	1	RES1	0.000	
17	 C44	-44.426	57.437	-95.248	C.2	1	RES1	0.000	
18	 C45	-44.468	56.143	-94.591	C.2	1	RES1	0.000	
19	 C46	-44.687	52.999	-96.237	C.2	1	RES1	0.000	
@<TRIPOS>BOND
1 1 3 2
2 1 4 1
3 1 13 1
4 2 8 1
5 2 10 ar
6 2 18 ar
7 4 6 1
8 5 12 1
9 6 8 1
10 7 18 2
11 8 19 1
12 9 19 2
13 10 11 ar
14 11 12 ar
15 13 19 1
16 12 14 ar
17 14 15 ar
18 15 16 ar
19 16 17 ar
20 11 17 ar
21 17 18 ar
@<TRIPOS>SUBSTRUCTURE
1	RES1	1	GROUP	1 ****	RES
