# created with PyMOL 2.5.2
@<TRIPOS>MOLECULE
BRD4_7BQU_E3ligase
19 21 1                 
SMALL
USER_CHARGES
@<TRIPOS>ATOM
1	  O2	27.387	17.216	11.938	O.2	1	RES1	0.000	
2	  O3	26.306	20.283	17.900	O.2	1	RES1	0.000	
3	  N4	25.438	17.705	13.141	N.2	1	RES1	0.000	
4	  O4	23.770	19.616	14.231	O.2	1	RES1	0.000	
5	  N5	25.066	19.886	16.052	N.pl3	1	RES1	0.000	
6	  O5	23.135	17.687	13.674	O.2	1	RES1	0.000	
7	 C13	25.536	15.502	10.214	C.2	1	RES1	0.000	
8	 C14	24.446	14.840	9.667	C.2	1	RES1	0.000	
9	 C15	23.164	14.989	10.177	C.2	1	RES1	0.000	
10	 C16	22.937	15.794	11.306	C.2	1	RES1	0.000	
11	 C17	24.026	16.443	11.869	C.2	1	RES1	0.000	
12	 C18	25.305	16.306	11.351	C.2	1	RES1	0.000	
13	 C19	26.202	17.119	12.165	C.2	1	RES1	0.000	
14	 C20	25.972	18.618	14.158	C.3	1	RES1	0.000	
15	 C21	26.845	17.948	15.189	C.3	1	RES1	0.000	
16	 C22	27.345	19.015	16.178	C.3	1	RES1	0.000	
17	 C23	26.213	19.761	16.813	C.2	1	RES1	0.000	
18	 C24	24.806	19.372	14.812	C.2	1	RES1	0.000	
19	 C25	24.094	17.354	13.004	C.2	1	RES1	0.000	
@<TRIPOS>BOND
1 7 8 ar
2 7 12 ar
3 8 9 ar
4 9 10 ar
5 10 11 ar
6 11 12 ar
7 11 19 ar
8 12 13 ar
9 1 13 2
10 3 13 ar
11 3 14 1
12 14 15 1
13 14 18 1
14 15 16 1
15 16 17 1
16 2 17 2
17 5 17 1
18 4 18 2
19 5 18 1
20 3 19 ar
21 6 19 2
@<TRIPOS>SUBSTRUCTURE
1	RES1	1	GROUP	1 ****	RES
