# created with PyMOL 2.5.2
@<TRIPOS>MOLECULE
EGFR_4TZ4_E3ligase
19 21 1                 
SMALL
USER_CHARGES
@<TRIPOS>ATOM
1	  C1	-46.268	51.154	-95.740	C.2	1	RES1	0.000	
2	  N1	-45.180	55.307	-95.452	N.2	1	RES1	0.000	
3	  O1	-46.583	49.996	-95.947	O.2	1	RES1	0.000	
4	  C2	-46.981	52.010	-94.727	C.3	1	RES1	0.000	
5	  N2	-45.809	58.376	-98.579	N.pl3	1	RES1	0.000	
6	  C3	-46.871	53.480	-95.058	C.3	1	RES1	0.000	
7	  O3	-43.992	55.894	-93.510	O.2	1	RES1	0.000	
8	  C4	-45.368	53.854	-95.174	C.3	1	RES1	0.000	
9	  O4	-43.721	53.373	-96.885	O.2	1	RES1	0.000	
10	  C5	-45.564	55.954	-96.685	C.2	1	RES1	0.000	
11	  C6	-45.029	57.321	-96.498	C.2	1	RES1	0.000	
12	  C7	-45.100	58.433	-97.344	C.2	1	RES1	0.000	
13	 N11	-45.198	51.707	-96.388	N.pl3	1	RES1	0.000	
14	 C42	-44.563	59.634	-96.884	C.2	1	RES1	0.000	
15	 C43	-43.913	59.733	-95.642	C.2	1	RES1	0.000	
16	 C44	-43.831	58.622	-94.806	C.2	1	RES1	0.000	
17	 C45	-44.411	57.450	-95.273	C.2	1	RES1	0.000	
18	 C46	-44.450	56.142	-94.600	C.2	1	RES1	0.000	
19	 C47	-44.691	52.986	-96.233	C.2	1	RES1	0.000	
@<TRIPOS>BOND
1 1 3 2
2 1 4 1
3 1 13 1
4 2 8 1
5 2 10 ar
6 2 18 ar
7 4 6 1
8 5 12 1
9 6 8 1
10 7 18 2
11 8 19 1
12 9 19 2
13 10 11 ar
14 11 12 ar
15 13 19 1
16 12 14 ar
17 14 15 ar
18 15 16 ar
19 16 17 ar
20 11 17 ar
21 17 18 ar
@<TRIPOS>SUBSTRUCTURE
1	RES1	1	GROUP	1 ****	RES
