# created with PyMOL 2.5.2
@<TRIPOS>MOLECULE
EGFR_4TZ4_E3ligase
19 21 1                 
SMALL
USER_CHARGES
@<TRIPOS>ATOM
1	  C1	-46.270	51.141	-95.751	C.2	1	RES1	0.000	
2	  N1	-45.173	55.310	-95.431	N.2	1	RES1	0.000	
3	  O1	-46.587	49.983	-95.949	O.2	1	RES1	0.000	
4	  C2	-46.983	52.024	-94.728	C.3	1	RES1	0.000	
5	  N2	-45.807	58.379	-98.553	N.pl3	1	RES1	0.000	
6	  C3	-46.851	53.482	-95.075	C.3	1	RES1	0.000	
7	  O3	-43.985	55.885	-93.492	O.2	1	RES1	0.000	
8	  C4	-45.387	53.850	-95.186	C.3	1	RES1	0.000	
9	  O4	-43.718	53.361	-96.887	O.2	1	RES1	0.000	
10	  C5	-45.564	55.944	-96.665	C.2	1	RES1	0.000	
11	  C6	-45.034	57.330	-96.490	C.2	1	RES1	0.000	
12	  C7	-45.106	58.436	-97.345	C.2	1	RES1	0.000	
13	 N11	-45.195	51.725	-96.374	N.pl3	1	RES1	0.000	
14	 C42	-44.552	59.627	-96.898	C.2	1	RES1	0.000	
15	 C43	-43.921	59.736	-95.653	C.2	1	RES1	0.000	
16	 C44	-43.834	58.619	-94.833	C.2	1	RES1	0.000	
17	 C45	-44.402	57.454	-95.279	C.2	1	RES1	0.000	
18	 C46	-44.470	56.138	-94.595	C.2	1	RES1	0.000	
19	 C47	-44.684	53.003	-96.241	C.2	1	RES1	0.000	
@<TRIPOS>BOND
1 1 3 2
2 1 4 1
3 1 13 1
4 2 8 1
5 2 10 ar
6 2 18 ar
7 4 6 1
8 5 12 1
9 6 8 1
10 7 18 2
11 8 19 1
12 9 19 2
13 10 11 ar
14 11 12 ar
15 13 19 1
16 12 14 ar
17 14 15 ar
18 15 16 ar
19 16 17 ar
20 11 17 ar
21 17 18 ar
@<TRIPOS>SUBSTRUCTURE
1	RES1	1	GROUP	1 ****	RES
