# created with PyMOL 2.5.2
@<TRIPOS>MOLECULE
EGFR_4TZ4_E3ligase
19 21 1                 
SMALL
USER_CHARGES
@<TRIPOS>ATOM
1	  C1	-46.265	51.143	-95.759	C.2	1	RES1	0.000	
2	  N1	-45.161	55.300	-95.435	N.2	1	RES1	0.000	
3	  O1	-46.589	49.978	-95.960	O.2	1	RES1	0.000	
4	  C2	-46.979	52.007	-94.722	C.3	1	RES1	0.000	
5	  N2	-45.814	58.365	-98.572	N.pl3	1	RES1	0.000	
6	  C3	-46.863	53.494	-95.051	C.3	1	RES1	0.000	
7	  O3	-43.978	55.906	-93.491	O.2	1	RES1	0.000	
8	  C4	-45.372	53.871	-95.174	C.3	1	RES1	0.000	
9	  O4	-43.726	53.367	-96.896	O.2	1	RES1	0.000	
10	  C5	-45.550	55.957	-96.682	C.2	1	RES1	0.000	
11	  C6	-45.023	57.315	-96.500	C.2	1	RES1	0.000	
12	  C7	-45.094	58.427	-97.357	C.2	1	RES1	0.000	
13	 N11	-45.209	51.729	-96.369	N.pl3	1	RES1	0.000	
14	 C42	-44.560	59.644	-96.896	C.2	1	RES1	0.000	
15	 C43	-43.925	59.726	-95.648	C.2	1	RES1	0.000	
16	 C44	-43.829	58.624	-94.811	C.2	1	RES1	0.000	
17	 C45	-44.414	57.436	-95.256	C.2	1	RES1	0.000	
18	 C46	-44.478	56.136	-94.595	C.2	1	RES1	0.000	
19	 C47	-44.692	53.000	-96.251	C.2	1	RES1	0.000	
@<TRIPOS>BOND
1 1 3 2
2 1 4 1
3 1 13 1
4 2 8 1
5 2 10 ar
6 2 18 ar
7 4 6 1
8 5 12 1
9 6 8 1
10 7 18 2
11 8 19 1
12 9 19 2
13 10 11 ar
14 11 12 ar
15 13 19 1
16 12 14 ar
17 14 15 ar
18 15 16 ar
19 16 17 ar
20 11 17 ar
21 17 18 ar
@<TRIPOS>SUBSTRUCTURE
1	RES1	1	GROUP	1 ****	RES
