# created with PyMOL 2.5.2
@<TRIPOS>MOLECULE
EGFR_4TZ4_E3ligase
19 21 1                 
SMALL
USER_CHARGES
@<TRIPOS>ATOM
1	  O4	-46.469	50.052	-94.901	O.2	1	RES1	0.000	
2	  O5	-43.327	53.274	-95.475	O.2	1	RES1	0.000	
3	  O6	-43.672	55.233	-94.449	O.2	1	RES1	0.000	
4	 N10	-46.221	59.136	-98.116	N.pl3	1	RES1	0.000	
5	 N11	-45.187	55.239	-96.261	N.2	1	RES1	0.000	
6	 N12	-44.967	51.720	-95.182	N.pl3	1	RES1	0.000	
7	 C36	-45.412	58.844	-96.990	C.2	1	RES1	0.000	
8	 C37	-44.667	59.829	-96.380	C.2	1	RES1	0.000	
9	 C38	-43.771	59.539	-95.335	C.2	1	RES1	0.000	
10	 C39	-43.617	58.220	-94.893	C.2	1	RES1	0.000	
11	 C40	-44.328	57.234	-95.546	C.2	1	RES1	0.000	
12	 C41	-45.203	57.517	-96.585	C.2	1	RES1	0.000	
13	 C42	-45.812	56.240	-97.095	C.2	1	RES1	0.000	
14	 C43	-45.553	53.825	-96.316	C.3	1	RES1	0.000	
15	 C44	-46.940	53.534	-95.741	C.3	1	RES1	0.000	
16	 C45	-47.293	52.071	-95.950	C.3	1	RES1	0.000	
17	 C46	-46.223	51.190	-95.262	C.2	1	RES1	0.000	
18	 C47	-44.524	52.942	-95.620	C.2	1	RES1	0.000	
19	 C48	-44.335	55.786	-95.329	C.2	1	RES1	0.000	
@<TRIPOS>BOND
1 1 17 2
2 4 7 1
3 5 13 ar
4 5 14 1
5 5 19 ar
6 6 17 1
7 6 18 1
8 7 8 ar
9 7 12 ar
10 8 9 ar
11 9 10 ar
12 10 11 ar
13 11 12 ar
14 11 19 ar
15 12 13 ar
16 14 15 1
17 14 18 1
18 15 16 1
19 16 17 1
20 2 18 2
21 3 19 2
@<TRIPOS>SUBSTRUCTURE
1	RES1	1	GROUP	1 ****	RES
