# created with PyMOL 2.5.2
@<TRIPOS>MOLECULE
EGFR_4TZ4_E3ligase
19 21 1                 
SMALL
USER_CHARGES
@<TRIPOS>ATOM
1	  O4	-46.462	50.098	-94.831	O.2	1	RES1	0.000	
2	  O5	-43.335	53.299	-95.497	O.2	1	RES1	0.000	
3	  O6	-43.714	55.215	-94.482	O.2	1	RES1	0.000	
4	 N10	-46.214	59.157	-98.095	N.pl3	1	RES1	0.000	
5	 N11	-45.209	55.246	-96.293	N.2	1	RES1	0.000	
6	 N12	-44.953	51.722	-95.162	N.pl3	1	RES1	0.000	
7	 C36	-45.397	58.835	-96.991	C.2	1	RES1	0.000	
8	 C37	-44.642	59.820	-96.377	C.2	1	RES1	0.000	
9	 C38	-43.768	59.520	-95.298	C.2	1	RES1	0.000	
10	 C39	-43.623	58.198	-94.875	C.2	1	RES1	0.000	
11	 C40	-44.340	57.218	-95.567	C.2	1	RES1	0.000	
12	 C41	-45.209	57.516	-96.591	C.2	1	RES1	0.000	
13	 C42	-45.813	56.252	-97.106	C.2	1	RES1	0.000	
14	 C43	-45.563	53.805	-96.348	C.3	1	RES1	0.000	
15	 C44	-46.961	53.543	-95.768	C.3	1	RES1	0.000	
16	 C45	-47.267	52.049	-95.913	C.3	1	RES1	0.000	
17	 C46	-46.200	51.198	-95.258	C.2	1	RES1	0.000	
18	 C47	-44.511	52.970	-95.627	C.2	1	RES1	0.000	
19	 C48	-44.342	55.765	-95.345	C.2	1	RES1	0.000	
@<TRIPOS>BOND
1 1 17 2
2 4 7 1
3 5 13 ar
4 5 14 1
5 5 19 ar
6 6 17 1
7 6 18 1
8 7 8 ar
9 7 12 ar
10 8 9 ar
11 9 10 ar
12 10 11 ar
13 11 12 ar
14 11 19 ar
15 12 13 ar
16 14 15 1
17 14 18 1
18 15 16 1
19 16 17 1
20 2 18 2
21 3 19 2
@<TRIPOS>SUBSTRUCTURE
1	RES1	1	GROUP	1 ****	RES
