# created with PyMOL 2.5.2
@<TRIPOS>MOLECULE
EGFR_4TZ4_E3ligase
19 21 1                 
SMALL
USER_CHARGES
@<TRIPOS>ATOM
1	  O4	-46.475	50.048	-94.857	O.2	1	RES1	0.000	
2	  O5	-43.363	53.326	-95.402	O.2	1	RES1	0.000	
3	  O6	-43.663	55.206	-94.484	O.2	1	RES1	0.000	
4	 N10	-46.289	59.169	-98.045	N.pl3	1	RES1	0.000	
5	 N11	-45.206	55.249	-96.281	N.2	1	RES1	0.000	
6	 N12	-44.960	51.747	-95.134	N.pl3	1	RES1	0.000	
7	 C36	-45.344	58.836	-97.051	C.2	1	RES1	0.000	
8	 C37	-44.676	59.815	-96.344	C.2	1	RES1	0.000	
9	 C38	-43.779	59.508	-95.291	C.2	1	RES1	0.000	
10	 C39	-43.594	58.213	-94.897	C.2	1	RES1	0.000	
11	 C40	-44.313	57.227	-95.584	C.2	1	RES1	0.000	
12	 C41	-45.194	57.531	-96.619	C.2	1	RES1	0.000	
13	 C42	-45.804	56.262	-97.134	C.2	1	RES1	0.000	
14	 C43	-45.566	53.823	-96.343	C.3	1	RES1	0.000	
15	 C44	-46.960	53.508	-95.812	C.3	1	RES1	0.000	
16	 C45	-47.257	52.045	-95.961	C.3	1	RES1	0.000	
17	 C46	-46.228	51.189	-95.265	C.2	1	RES1	0.000	
18	 C47	-44.504	52.963	-95.564	C.2	1	RES1	0.000	
19	 C48	-44.345	55.758	-95.354	C.2	1	RES1	0.000	
@<TRIPOS>BOND
1 1 17 2
2 4 7 1
3 5 13 ar
4 5 14 1
5 5 19 ar
6 6 17 1
7 6 18 1
8 7 8 ar
9 7 12 ar
10 8 9 ar
11 9 10 ar
12 10 11 ar
13 11 12 ar
14 11 19 ar
15 12 13 ar
16 14 15 1
17 14 18 1
18 15 16 1
19 16 17 1
20 2 18 2
21 3 19 2
@<TRIPOS>SUBSTRUCTURE
1	RES1	1	GROUP	1 ****	RES
