# created with PyMOL 2.5.2
@<TRIPOS>MOLECULE
EGFR_4TZ4_E3ligase
19 21 1                 
SMALL
USER_CHARGES
@<TRIPOS>ATOM
1	  O5	-46.476	50.091	-94.831	O.2	1	RES1	0.000	
2	  O6	-43.367	53.304	-95.450	O.2	1	RES1	0.000	
3	  O7	-43.686	55.233	-94.470	O.2	1	RES1	0.000	
4	 N10	-46.221	59.140	-98.068	N.pl3	1	RES1	0.000	
5	 N11	-45.208	55.230	-96.299	N.2	1	RES1	0.000	
6	 N12	-44.974	51.741	-95.160	N.pl3	1	RES1	0.000	
7	 C38	-45.418	58.830	-97.002	C.2	1	RES1	0.000	
8	 C39	-44.657	59.808	-96.365	C.2	1	RES1	0.000	
9	 C40	-43.790	59.516	-95.282	C.2	1	RES1	0.000	
10	 C41	-43.625	58.197	-94.886	C.2	1	RES1	0.000	
11	 C42	-44.308	57.214	-95.556	C.2	1	RES1	0.000	
12	 C43	-45.192	57.517	-96.612	C.2	1	RES1	0.000	
13	 C44	-45.784	56.256	-97.132	C.2	1	RES1	0.000	
14	 C45	-45.539	53.821	-96.349	C.3	1	RES1	0.000	
15	 C46	-46.955	53.528	-95.810	C.3	1	RES1	0.000	
16	 C47	-47.253	52.049	-95.934	C.3	1	RES1	0.000	
17	 C48	-46.210	51.201	-95.254	C.2	1	RES1	0.000	
18	 C49	-44.519	52.974	-95.610	C.2	1	RES1	0.000	
19	 C50	-44.343	55.775	-95.354	C.2	1	RES1	0.000	
@<TRIPOS>BOND
1 4 7 1
2 5 13 ar
3 5 14 1
4 5 19 ar
5 6 17 1
6 6 18 1
7 7 8 ar
8 7 12 ar
9 8 9 ar
10 9 10 ar
11 10 11 ar
12 11 12 ar
13 11 19 ar
14 12 13 ar
15 14 15 1
16 14 18 1
17 15 16 1
18 16 17 1
19 1 17 2
20 2 18 2
21 3 19 2
@<TRIPOS>SUBSTRUCTURE
1	RES1	1	GROUP	1 ****	RES
