# created with PyMOL 2.5.2
@<TRIPOS>MOLECULE
EGFR_4TZ4_E3ligase
19 21 1                 
SMALL
USER_CHARGES
@<TRIPOS>ATOM
1	  O5	-46.467	50.051	-94.908	O.2	1	RES1	0.000	
2	  O6	-43.361	53.321	-95.405	O.2	1	RES1	0.000	
3	  O7	-43.616	55.250	-94.467	O.2	1	RES1	0.000	
4	 N10	-46.304	59.127	-98.036	N.pl3	1	RES1	0.000	
5	 N11	-45.259	55.239	-96.184	N.2	1	RES1	0.000	
6	 N12	-44.958	51.738	-95.147	N.pl3	1	RES1	0.000	
7	 C38	-45.359	58.814	-97.049	C.2	1	RES1	0.000	
8	 C39	-44.636	59.830	-96.394	C.2	1	RES1	0.000	
9	 C40	-43.765	59.531	-95.371	C.2	1	RES1	0.000	
10	 C41	-43.567	58.238	-94.923	C.2	1	RES1	0.000	
11	 C42	-44.291	57.244	-95.560	C.2	1	RES1	0.000	
12	 C43	-45.210	57.513	-96.575	C.2	1	RES1	0.000	
13	 C44	-45.827	56.253	-97.037	C.2	1	RES1	0.000	
14	 C45	-45.583	53.840	-96.302	C.3	1	RES1	0.000	
15	 C46	-46.991	53.492	-95.860	C.3	1	RES1	0.000	
16	 C47	-47.225	51.997	-96.037	C.3	1	RES1	0.000	
17	 C48	-46.219	51.168	-95.296	C.2	1	RES1	0.000	
18	 C49	-44.562	52.971	-95.550	C.2	1	RES1	0.000	
19	 C50	-44.323	55.805	-95.322	C.2	1	RES1	0.000	
@<TRIPOS>BOND
1 4 7 1
2 5 13 ar
3 5 14 1
4 5 19 ar
5 6 17 1
6 6 18 1
7 7 8 ar
8 7 12 ar
9 8 9 ar
10 9 10 ar
11 10 11 ar
12 11 12 ar
13 11 19 ar
14 12 13 ar
15 14 15 1
16 14 18 1
17 15 16 1
18 16 17 1
19 1 17 2
20 2 18 2
21 3 19 2
@<TRIPOS>SUBSTRUCTURE
1	RES1	1	GROUP	1 ****	RES
