# created with PyMOL 2.5.2
@<TRIPOS>MOLECULE
EGFR_4TZ4_E3ligase
19 21 1                 
SMALL
USER_CHARGES
@<TRIPOS>ATOM
1	  O5	-46.452	50.060	-94.885	O.2	1	RES1	0.000	
2	  O6	-43.342	53.277	-95.510	O.2	1	RES1	0.000	
3	  O7	-43.691	55.218	-94.448	O.2	1	RES1	0.000	
4	 N10	-46.211	59.140	-98.111	N.pl3	1	RES1	0.000	
5	 N11	-45.210	55.232	-96.246	N.2	1	RES1	0.000	
6	 N12	-44.938	51.734	-95.204	N.pl3	1	RES1	0.000	
7	 C38	-45.408	58.850	-97.019	C.2	1	RES1	0.000	
8	 C39	-44.634	59.821	-96.382	C.2	1	RES1	0.000	
9	 C40	-43.761	59.528	-95.331	C.2	1	RES1	0.000	
10	 C41	-43.618	58.214	-94.899	C.2	1	RES1	0.000	
11	 C42	-44.338	57.235	-95.567	C.2	1	RES1	0.000	
12	 C43	-45.205	57.535	-96.580	C.2	1	RES1	0.000	
13	 C44	-45.810	56.272	-97.074	C.2	1	RES1	0.000	
14	 C45	-45.581	53.803	-96.310	C.3	1	RES1	0.000	
15	 C46	-46.963	53.541	-95.748	C.3	1	RES1	0.000	
16	 C47	-47.271	52.041	-95.900	C.3	1	RES1	0.000	
17	 C48	-46.214	51.186	-95.270	C.2	1	RES1	0.000	
18	 C49	-44.522	52.941	-95.625	C.2	1	RES1	0.000	
19	 C50	-44.353	55.794	-95.315	C.2	1	RES1	0.000	
@<TRIPOS>BOND
1 4 7 1
2 5 13 ar
3 5 14 1
4 5 19 ar
5 6 17 1
6 6 18 1
7 7 8 ar
8 7 12 ar
9 8 9 ar
10 9 10 ar
11 10 11 ar
12 11 12 ar
13 11 19 ar
14 12 13 ar
15 14 15 1
16 14 18 1
17 15 16 1
18 16 17 1
19 1 17 2
20 2 18 2
21 3 19 2
@<TRIPOS>SUBSTRUCTURE
1	RES1	1	GROUP	1 ****	RES
