# created with PyMOL 2.5.2
@<TRIPOS>MOLECULE
EGFR_4TZ4_E3ligase
19 21 1                 
SMALL
USER_CHARGES
@<TRIPOS>ATOM
1	  O6	-46.497	50.101	-94.846	O.2	1	RES1	0.000	
2	  O7	-43.314	53.247	-95.488	O.2	1	RES1	0.000	
3	  O8	-43.691	55.208	-94.473	O.2	1	RES1	0.000	
4	 N10	-46.254	59.152	-98.069	N.pl3	1	RES1	0.000	
5	 N11	-45.162	55.232	-96.310	N.2	1	RES1	0.000	
6	 N12	-44.956	51.714	-95.173	N.pl3	1	RES1	0.000	
7	 C40	-45.325	58.840	-97.066	C.2	1	RES1	0.000	
8	 C41	-44.697	59.841	-96.335	C.2	1	RES1	0.000	
9	 C42	-43.834	59.525	-95.266	C.2	1	RES1	0.000	
10	 C43	-43.647	58.206	-94.861	C.2	1	RES1	0.000	
11	 C44	-44.342	57.232	-95.561	C.2	1	RES1	0.000	
12	 C45	-45.192	57.489	-96.630	C.2	1	RES1	0.000	
13	 C46	-45.777	56.280	-97.133	C.2	1	RES1	0.000	
14	 C47	-45.528	53.814	-96.353	C.3	1	RES1	0.000	
15	 C48	-46.927	53.555	-95.745	C.3	1	RES1	0.000	
16	 C49	-47.262	52.092	-95.915	C.3	1	RES1	0.000	
17	 C50	-46.259	51.205	-95.244	C.2	1	RES1	0.000	
18	 C51	-44.507	52.926	-95.608	C.2	1	RES1	0.000	
19	 C52	-44.352	55.765	-95.347	C.2	1	RES1	0.000	
@<TRIPOS>BOND
1 4 7 1
2 5 13 ar
3 5 14 1
4 5 19 ar
5 6 17 1
6 6 18 1
7 7 8 ar
8 7 12 ar
9 8 9 ar
10 9 10 ar
11 10 11 ar
12 11 12 ar
13 11 19 ar
14 12 13 ar
15 14 15 1
16 14 18 1
17 15 16 1
18 16 17 1
19 1 17 2
20 2 18 2
21 3 19 2
@<TRIPOS>SUBSTRUCTURE
1	RES1	1	GROUP	1 ****	RES
