# created with PyMOL 2.5.2
@<TRIPOS>MOLECULE
BRD4_7BQU_E3ligase
19 21 1                 
SMALL
USER_CHARGES
@<TRIPOS>ATOM
1	  O3	27.394	17.204	11.951	O.2	1	RES1	0.000	
2	  N4	25.419	17.684	13.141	N.2	1	RES1	0.000	
3	  O4	26.347	20.287	17.901	O.2	1	RES1	0.000	
4	  N5	25.087	19.893	16.067	N.pl3	1	RES1	0.000	
5	  O5	23.730	19.626	14.268	O.2	1	RES1	0.000	
6	  O6	23.112	17.701	13.642	O.2	1	RES1	0.000	
7	 C14	25.552	15.512	10.234	C.2	1	RES1	0.000	
8	 C15	24.472	14.846	9.662	C.2	1	RES1	0.000	
9	 C16	23.177	14.983	10.187	C.2	1	RES1	0.000	
10	 C17	22.940	15.776	11.281	C.2	1	RES1	0.000	
11	 C18	24.015	16.441	11.875	C.2	1	RES1	0.000	
12	 C19	25.272	16.297	11.349	C.2	1	RES1	0.000	
13	 C20	26.187	17.112	12.169	C.2	1	RES1	0.000	
14	 C21	25.946	18.610	14.143	C.3	1	RES1	0.000	
15	 C22	26.855	17.962	15.192	C.3	1	RES1	0.000	
16	 C23	27.356	19.016	16.156	C.3	1	RES1	0.000	
17	 C24	26.235	19.781	16.822	C.2	1	RES1	0.000	
18	 C25	24.805	19.388	14.808	C.2	1	RES1	0.000	
19	 C26	24.093	17.334	12.990	C.2	1	RES1	0.000	
@<TRIPOS>BOND
1 7 8 ar
2 7 12 ar
3 8 9 ar
4 9 10 ar
5 10 11 ar
6 11 12 ar
7 11 19 ar
8 12 13 ar
9 1 13 2
10 2 13 ar
11 2 14 1
12 14 15 1
13 14 18 1
14 15 16 1
15 16 17 1
16 3 17 2
17 4 17 1
18 4 18 1
19 5 18 2
20 2 19 ar
21 6 19 2
@<TRIPOS>SUBSTRUCTURE
1	RES1	1	GROUP	1 ****	RES
