# created with PyMOL 2.5.2
@<TRIPOS>MOLECULE
EGFR_4TZ4_E3ligase
19 21 1                 
SMALL
USER_CHARGES
@<TRIPOS>ATOM
1	  O6	-46.466	50.052	-94.924	O.2	1	RES1	0.000	
2	  O7	-43.380	53.292	-95.410	O.2	1	RES1	0.000	
3	  O8	-43.655	55.241	-94.447	O.2	1	RES1	0.000	
4	 N10	-46.240	59.119	-98.087	N.pl3	1	RES1	0.000	
5	 N11	-45.203	55.241	-96.215	N.2	1	RES1	0.000	
6	 N12	-44.947	51.707	-95.216	N.pl3	1	RES1	0.000	
7	 C40	-45.411	58.849	-97.012	C.2	1	RES1	0.000	
8	 C41	-44.655	59.839	-96.399	C.2	1	RES1	0.000	
9	 C42	-43.744	59.544	-95.346	C.2	1	RES1	0.000	
10	 C43	-43.598	58.222	-94.930	C.2	1	RES1	0.000	
11	 C44	-44.314	57.238	-95.559	C.2	1	RES1	0.000	
12	 C45	-45.211	57.521	-96.593	C.2	1	RES1	0.000	
13	 C46	-45.820	56.262	-97.068	C.2	1	RES1	0.000	
14	 C47	-45.574	53.827	-96.287	C.3	1	RES1	0.000	
15	 C48	-46.956	53.515	-95.750	C.3	1	RES1	0.000	
16	 C49	-47.262	52.039	-95.957	C.3	1	RES1	0.000	
17	 C50	-46.225	51.172	-95.312	C.2	1	RES1	0.000	
18	 C51	-44.519	52.949	-95.587	C.2	1	RES1	0.000	
19	 C52	-44.342	55.795	-95.325	C.2	1	RES1	0.000	
@<TRIPOS>BOND
1 4 7 1
2 5 13 ar
3 5 14 1
4 5 19 ar
5 6 17 1
6 6 18 1
7 7 8 ar
8 7 12 ar
9 8 9 ar
10 9 10 ar
11 10 11 ar
12 11 12 ar
13 11 19 ar
14 12 13 ar
15 14 15 1
16 14 18 1
17 15 16 1
18 16 17 1
19 1 17 2
20 2 18 2
21 3 19 2
@<TRIPOS>SUBSTRUCTURE
1	RES1	1	GROUP	1 ****	RES
