# created with PyMOL 2.5.2
@<TRIPOS>MOLECULE
EGFR_4TZ4_E3ligase
19 21 1                 
SMALL
USER_CHARGES
@<TRIPOS>ATOM
1	  O6	-46.544	50.045	-94.958	O.2	1	RES1	0.000	
2	  O7	-43.372	53.255	-95.332	O.2	1	RES1	0.000	
3	  O8	-43.573	55.277	-94.445	O.2	1	RES1	0.000	
4	 N10	-46.355	59.084	-98.042	N.pl3	1	RES1	0.000	
5	 N11	-45.192	55.252	-96.138	N.2	1	RES1	0.000	
6	 N12	-45.011	51.703	-95.123	N.pl3	1	RES1	0.000	
7	 C40	-45.385	58.812	-97.060	C.2	1	RES1	0.000	
8	 C41	-44.689	59.850	-96.407	C.2	1	RES1	0.000	
9	 C42	-43.783	59.561	-95.366	C.2	1	RES1	0.000	
10	 C43	-43.577	58.287	-94.927	C.2	1	RES1	0.000	
11	 C44	-44.299	57.265	-95.559	C.2	1	RES1	0.000	
12	 C45	-45.190	57.496	-96.567	C.2	1	RES1	0.000	
13	 C46	-45.796	56.224	-97.040	C.2	1	RES1	0.000	
14	 C47	-45.503	53.813	-96.306	C.3	1	RES1	0.000	
15	 C48	-46.969	53.523	-95.888	C.3	1	RES1	0.000	
16	 C49	-47.219	52.020	-96.103	C.3	1	RES1	0.000	
17	 C50	-46.249	51.180	-95.339	C.2	1	RES1	0.000	
18	 C51	-44.532	52.956	-95.543	C.2	1	RES1	0.000	
19	 C52	-44.287	55.819	-95.280	C.2	1	RES1	0.000	
@<TRIPOS>BOND
1 4 7 1
2 5 13 ar
3 5 14 1
4 5 19 ar
5 6 17 1
6 6 18 1
7 7 8 ar
8 7 12 ar
9 8 9 ar
10 9 10 ar
11 10 11 ar
12 11 12 ar
13 11 19 ar
14 12 13 ar
15 14 15 1
16 14 18 1
17 15 16 1
18 16 17 1
19 1 17 2
20 2 18 2
21 3 19 2
@<TRIPOS>SUBSTRUCTURE
1	RES1	1	GROUP	1 ****	RES
