# created with PyMOL 2.5.2
@<TRIPOS>MOLECULE
CDK6_6H0G_E3ligase
20 22 1                 
SMALL
USER_CHARGES
@<TRIPOS>ATOM
1	  O3	2.817	53.745	-82.867	O.2	1	RES1	0.000	
2	  O4	3.699	49.682	-77.405	O.2	1	RES1	0.000	
3	  N5	1.994	54.441	-85.617	N.pl3	1	RES1	0.000	
4	  O5	0.215	50.406	-80.222	O.2	1	RES1	0.000	
5	  N6	1.727	51.791	-82.116	N.2	1	RES1	0.000	
6	  O6	0.435	49.830	-82.261	O.2	1	RES1	0.000	
7	  N7	1.986	50.052	-78.878	N.pl3	1	RES1	0.000	
8	 C21	1.336	53.217	-85.466	C.2	1	RES1	0.000	
9	 C22	0.526	52.671	-86.462	C.2	1	RES1	0.000	
10	 C23	-0.195	51.461	-86.272	C.2	1	RES1	0.000	
11	 C24	-0.129	50.789	-85.047	C.2	1	RES1	0.000	
12	 C25	0.655	51.340	-84.052	C.2	1	RES1	0.000	
13	 C26	1.354	52.509	-84.244	C.2	1	RES1	0.000	
14	 C27	2.063	52.799	-82.990	C.2	1	RES1	0.000	
15	 C28	2.231	51.656	-80.750	C.3	1	RES1	0.000	
16	 C29	3.707	51.270	-80.639	C.3	1	RES1	0.000	
17	 C30	4.155	51.185	-79.182	C.3	1	RES1	0.000	
18	 C31	3.278	50.244	-78.435	C.2	1	RES1	0.000	
19	 C32	1.371	50.647	-79.955	C.2	1	RES1	0.000	
20	 C33	0.900	50.856	-82.707	C.2	1	RES1	0.000	
@<TRIPOS>BOND
1 3 8 1
2 8 9 ar
3 8 13 ar
4 9 10 ar
5 10 11 ar
6 11 12 ar
7 12 13 ar
8 12 20 ar
9 13 14 ar
10 1 14 2
11 5 14 ar
12 5 15 1
13 15 16 1
14 15 19 1
15 16 17 1
16 17 18 1
17 2 18 2
18 7 18 1
19 4 19 2
20 7 19 1
21 5 20 ar
22 6 20 2
@<TRIPOS>SUBSTRUCTURE
1	RES1	1	GROUP	1 ****	RES
