# created with PyMOL 2.5.2
@<TRIPOS>MOLECULE
CDK6_6H0G_E3ligase
20 22 1                 
SMALL
USER_CHARGES
@<TRIPOS>ATOM
1	  N5	1.953	54.460	-85.618	N.pl3	1	RES1	0.000	
2	  O5	2.825	53.732	-82.863	O.2	1	RES1	0.000	
3	  N6	1.753	51.799	-82.093	N.2	1	RES1	0.000	
4	  O6	3.669	49.672	-77.415	O.3	1	RES1	0.000	
5	  N7	1.980	50.079	-78.884	N.pl3	1	RES1	0.000	
6	  O7	0.199	50.459	-80.207	O.2	1	RES1	0.000	
7	  O8	0.432	49.813	-82.259	O.2	1	RES1	0.000	
8	 C21	1.328	53.208	-85.452	C.2	1	RES1	0.000	
9	 C22	0.503	52.682	-86.443	C.2	1	RES1	0.000	
10	 C23	-0.185	51.480	-86.290	C.2	1	RES1	0.000	
11	 C24	-0.118	50.776	-85.068	C.2	1	RES1	0.000	
12	 C25	0.679	51.336	-84.051	C.2	1	RES1	0.000	
13	 C26	1.364	52.494	-84.232	C.2	1	RES1	0.000	
14	 C27	2.080	52.777	-82.987	C.2	1	RES1	0.000	
15	 C28	2.256	51.656	-80.747	C.3	1	RES1	0.000	
16	 C29	3.688	51.250	-80.667	C.3	1	RES1	0.000	
17	 C30	4.159	51.181	-79.213	C.3	1	RES1	0.000	
18	 C31	3.277	50.227	-78.417	C.3	1	RES1	0.000	
19	 C32	1.376	50.665	-79.951	C.2	1	RES1	0.000	
20	 C33	0.905	50.847	-82.709	C.2	1	RES1	0.000	
@<TRIPOS>BOND
1 1 8 1
2 8 9 ar
3 8 13 ar
4 9 10 ar
5 10 11 ar
6 11 12 ar
7 12 13 ar
8 12 20 ar
9 13 14 ar
10 2 14 2
11 3 14 ar
12 3 15 1
13 15 16 1
14 15 19 1
15 16 17 1
16 17 18 1
17 4 18 1
18 5 18 1
19 5 19 1
20 6 19 2
21 3 20 ar
22 7 20 2
@<TRIPOS>SUBSTRUCTURE
1	RES1	1	GROUP	1 ****	RES
