# created with PyMOL 2.5.2
@<TRIPOS>MOLECULE
CDK6_6H0G_E3ligase
20 22 1                 
SMALL
USER_CHARGES
@<TRIPOS>ATOM
1	  N5	1.976	54.442	-85.599	N.pl3	1	RES1	0.000	
2	  N6	1.721	51.767	-82.098	N.2	1	RES1	0.000	
3	  O6	2.798	53.746	-82.834	O.2	1	RES1	0.000	
4	  N7	2.008	50.104	-78.862	N.pl3	1	RES1	0.000	
5	  O7	3.707	49.684	-77.404	O.2	1	RES1	0.000	
6	  O8	0.208	50.431	-80.198	O.2	1	RES1	0.000	
7	  O9	0.413	49.827	-82.267	O.2	1	RES1	0.000	
8	 C23	1.341	53.208	-85.446	C.2	1	RES1	0.000	
9	 C24	0.530	52.687	-86.484	C.2	1	RES1	0.000	
10	 C25	-0.172	51.475	-86.290	C.2	1	RES1	0.000	
11	 C26	-0.109	50.777	-85.080	C.2	1	RES1	0.000	
12	 C27	0.673	51.340	-84.080	C.2	1	RES1	0.000	
13	 C28	1.339	52.503	-84.223	C.2	1	RES1	0.000	
14	 C29	2.045	52.787	-82.990	C.2	1	RES1	0.000	
15	 C30	2.229	51.626	-80.746	C.3	1	RES1	0.000	
16	 C31	3.695	51.245	-80.670	C.3	1	RES1	0.000	
17	 C32	4.148	51.193	-79.204	C.3	1	RES1	0.000	
18	 C33	3.299	50.252	-78.431	C.2	1	RES1	0.000	
19	 C34	1.377	50.643	-79.953	C.2	1	RES1	0.000	
20	 C35	0.898	50.855	-82.708	C.2	1	RES1	0.000	
@<TRIPOS>BOND
1 1 8 1
2 8 9 ar
3 8 13 ar
4 9 10 ar
5 10 11 ar
6 11 12 ar
7 12 13 ar
8 12 20 ar
9 13 14 ar
10 2 14 ar
11 3 14 2
12 2 15 1
13 15 16 1
14 15 19 1
15 16 17 1
16 17 18 1
17 4 18 1
18 5 18 2
19 4 19 1
20 6 19 2
21 2 20 ar
22 7 20 2
@<TRIPOS>SUBSTRUCTURE
1	RES1	1	GROUP	1 ****	RES
