# created with PyMOL 2.5.2
@<TRIPOS>MOLECULE
CDK6_6H0G_E3ligase
20 22 1                 
SMALL
USER_CHARGES
@<TRIPOS>ATOM
1	  N5	1.955	54.444	-85.602	N.pl3	1	RES1	0.000	
2	  N6	1.705	51.845	-82.099	N.2	1	RES1	0.000	
3	  O6	2.752	53.825	-82.828	O.2	1	RES1	0.000	
4	  N7	2.009	50.034	-78.905	N.pl3	1	RES1	0.000	
5	  O7	3.733	49.609	-77.471	O.2	1	RES1	0.000	
6	  O8	0.204	50.460	-80.208	O.2	1	RES1	0.000	
7	  O9	0.449	49.825	-82.230	O.2	1	RES1	0.000	
8	 C26	1.355	53.191	-85.443	C.2	1	RES1	0.000	
9	 C27	0.550	52.646	-86.462	C.2	1	RES1	0.000	
10	 C28	-0.126	51.426	-86.294	C.2	1	RES1	0.000	
11	 C29	-0.088	50.762	-85.080	C.2	1	RES1	0.000	
12	 C30	0.661	51.315	-84.072	C.2	1	RES1	0.000	
13	 C31	1.359	52.510	-84.214	C.2	1	RES1	0.000	
14	 C32	2.013	52.820	-82.962	C.2	1	RES1	0.000	
15	 C33	2.207	51.681	-80.698	C.3	1	RES1	0.000	
16	 C34	3.691	51.292	-80.671	C.3	1	RES1	0.000	
17	 C35	4.156	51.182	-79.223	C.3	1	RES1	0.000	
18	 C36	3.282	50.191	-78.461	C.2	1	RES1	0.000	
19	 C37	1.370	50.674	-79.963	C.2	1	RES1	0.000	
20	 C38	0.887	50.862	-82.681	C.2	1	RES1	0.000	
@<TRIPOS>BOND
1 1 8 1
2 8 9 ar
3 8 13 ar
4 9 10 ar
5 10 11 ar
6 11 12 ar
7 12 13 ar
8 12 20 ar
9 13 14 ar
10 2 14 ar
11 3 14 2
12 2 15 1
13 15 16 1
14 15 19 1
15 16 17 1
16 17 18 1
17 4 18 1
18 5 18 2
19 4 19 1
20 6 19 2
21 2 20 ar
22 7 20 2
@<TRIPOS>SUBSTRUCTURE
1	RES1	1	GROUP	1 ****	RES
