# created with PyMOL 2.5.2
@<TRIPOS>MOLECULE
CDK6_6H0G_E3ligase
20 22 1                 
SMALL
USER_CHARGES
@<TRIPOS>ATOM
1	  N6	1.976	54.459	-85.574	N.pl3	1	RES1	0.000	
2	  O6	2.819	53.731	-82.839	O.2	1	RES1	0.000	
3	  N7	1.730	51.772	-82.134	N.2	1	RES1	0.000	
4	  O7	3.676	49.678	-77.411	O.2	1	RES1	0.000	
5	  N8	1.996	50.091	-78.848	N.pl3	1	RES1	0.000	
6	  O8	0.219	50.449	-80.194	O.2	1	RES1	0.000	
7	  O9	0.415	49.808	-82.266	O.2	1	RES1	0.000	
8	 C29	1.333	53.185	-85.445	C.2	1	RES1	0.000	
9	 C30	0.526	52.678	-86.467	C.2	1	RES1	0.000	
10	 C31	-0.176	51.488	-86.292	C.2	1	RES1	0.000	
11	 C32	-0.130	50.766	-85.076	C.2	1	RES1	0.000	
12	 C33	0.644	51.324	-84.066	C.2	1	RES1	0.000	
13	 C34	1.358	52.503	-84.247	C.2	1	RES1	0.000	
14	 C35	2.058	52.798	-82.989	C.2	1	RES1	0.000	
15	 C36	2.254	51.628	-80.745	C.3	1	RES1	0.000	
16	 C37	3.706	51.266	-80.662	C.3	1	RES1	0.000	
17	 C38	4.165	51.201	-79.216	C.3	1	RES1	0.000	
18	 C39	3.274	50.240	-78.410	C.2	1	RES1	0.000	
19	 C40	1.387	50.670	-79.950	C.2	1	RES1	0.000	
20	 C41	0.894	50.860	-82.735	C.2	1	RES1	0.000	
@<TRIPOS>BOND
1 1 8 1
2 8 9 ar
3 8 13 ar
4 9 10 ar
5 10 11 ar
6 11 12 ar
7 12 13 ar
8 12 20 ar
9 13 14 ar
10 2 14 2
11 3 14 ar
12 3 15 1
13 15 16 1
14 15 19 1
15 16 17 1
16 17 18 1
17 4 18 2
18 5 18 1
19 5 19 1
20 6 19 2
21 3 20 ar
22 7 20 2
@<TRIPOS>SUBSTRUCTURE
1	RES1	1	GROUP	1 ****	RES
