# created with PyMOL 2.5.2
@<TRIPOS>MOLECULE
CDK6_6H0G_E3ligase
20 22 1                 
SMALL
USER_CHARGES
@<TRIPOS>ATOM
1	  N5	1.972	54.452	-85.609	N.pl3	1	RES1	0.000	
2	  O5	2.809	53.747	-82.835	O.2	1	RES1	0.000	
3	  N6	1.734	51.776	-82.110	N.2	1	RES1	0.000	
4	  O6	3.686	49.694	-77.410	O.2	1	RES1	0.000	
5	  N7	1.978	50.098	-78.851	N.pl3	1	RES1	0.000	
6	  O7	0.213	50.442	-80.194	O.2	1	RES1	0.000	
7	  O8	0.439	49.826	-82.247	O.2	1	RES1	0.000	
8	 C31	1.337	53.209	-85.448	C.2	1	RES1	0.000	
9	 C32	0.527	52.684	-86.449	C.2	1	RES1	0.000	
10	 C33	-0.191	51.473	-86.273	C.2	1	RES1	0.000	
11	 C34	-0.124	50.788	-85.091	C.2	1	RES1	0.000	
12	 C35	0.665	51.324	-84.077	C.2	1	RES1	0.000	
13	 C36	1.353	52.503	-84.221	C.2	1	RES1	0.000	
14	 C37	2.061	52.782	-82.998	C.2	1	RES1	0.000	
15	 C38	2.250	51.634	-80.744	C.3	1	RES1	0.000	
16	 C39	3.714	51.242	-80.667	C.3	1	RES1	0.000	
17	 C40	4.152	51.171	-79.222	C.3	1	RES1	0.000	
18	 C41	3.284	50.233	-78.412	C.2	1	RES1	0.000	
19	 C42	1.371	50.675	-79.981	C.2	1	RES1	0.000	
20	 C43	0.893	50.842	-82.727	C.2	1	RES1	0.000	
@<TRIPOS>BOND
1 1 8 1
2 8 9 ar
3 8 13 ar
4 9 10 ar
5 10 11 ar
6 11 12 ar
7 12 13 ar
8 12 20 ar
9 13 14 ar
10 2 14 2
11 3 14 ar
12 3 15 1
13 15 16 1
14 15 19 1
15 16 17 1
16 17 18 1
17 4 18 2
18 5 18 1
19 5 19 1
20 6 19 2
21 3 20 ar
22 7 20 2
@<TRIPOS>SUBSTRUCTURE
1	RES1	1	GROUP	1 ****	RES
