# created with PyMOL 2.5.2
@<TRIPOS>MOLECULE
CDK6_6H0G_E3ligase
20 22 1                 
SMALL
USER_CHARGES
@<TRIPOS>ATOM
1	  N5	1.975	54.449	-85.616	N.pl3	1	RES1	0.000	
2	  O5	2.838	53.757	-82.828	O.2	1	RES1	0.000	
3	  N6	1.734	51.783	-82.128	N.2	1	RES1	0.000	
4	  O6	3.678	49.681	-77.389	O.3	1	RES1	0.000	
5	  N7	1.998	50.076	-78.874	N.pl3	1	RES1	0.000	
6	  O7	0.213	50.438	-80.229	O.2	1	RES1	0.000	
7	  O8	0.429	49.839	-82.240	O.2	1	RES1	0.000	
8	 C33	1.314	53.182	-85.443	C.2	1	RES1	0.000	
9	 C34	0.516	52.689	-86.455	C.2	1	RES1	0.000	
10	 C35	-0.192	51.489	-86.292	C.2	1	RES1	0.000	
11	 C36	-0.131	50.770	-85.082	C.2	1	RES1	0.000	
12	 C37	0.651	51.334	-84.070	C.2	1	RES1	0.000	
13	 C38	1.359	52.498	-84.252	C.2	1	RES1	0.000	
14	 C39	2.074	52.786	-82.997	C.2	1	RES1	0.000	
15	 C40	2.248	51.646	-80.748	C.3	1	RES1	0.000	
16	 C41	3.712	51.255	-80.666	C.3	1	RES1	0.000	
17	 C42	4.162	51.187	-79.197	C.3	1	RES1	0.000	
18	 C43	3.278	50.236	-78.408	C.3	1	RES1	0.000	
19	 C44	1.365	50.646	-79.950	C.2	1	RES1	0.000	
20	 C45	0.906	50.852	-82.704	C.2	1	RES1	0.000	
@<TRIPOS>BOND
1 1 8 1
2 8 9 ar
3 8 13 ar
4 9 10 ar
5 10 11 ar
6 11 12 ar
7 12 13 ar
8 12 20 ar
9 13 14 ar
10 2 14 2
11 3 14 ar
12 3 15 1
13 15 16 1
14 15 19 1
15 16 17 1
16 17 18 1
17 4 18 1
18 5 18 1
19 5 19 1
20 6 19 2
21 3 20 ar
22 7 20 2
@<TRIPOS>SUBSTRUCTURE
1	RES1	1	GROUP	1 ****	RES
