# created with PyMOL 2.5.2
@<TRIPOS>MOLECULE
CDK6_6H0G_E3ligase
20 22 1                 
SMALL
USER_CHARGES
@<TRIPOS>ATOM
1	  N5	1.956	54.449	-85.592	N.pl3	1	RES1	0.000	
2	  N6	1.716	51.818	-82.108	N.2	1	RES1	0.000	
3	  O6	2.793	53.775	-82.835	O.2	1	RES1	0.000	
4	  N7	1.987	50.076	-78.870	N.pl3	1	RES1	0.000	
5	  O7	3.681	49.656	-77.445	O.2	1	RES1	0.000	
6	  O8	0.188	50.476	-80.191	O.2	1	RES1	0.000	
7	  O9	0.468	49.842	-82.237	O.2	1	RES1	0.000	
8	 C33	1.337	53.192	-85.428	C.2	1	RES1	0.000	
9	 C34	0.537	52.660	-86.461	C.2	1	RES1	0.000	
10	 C35	-0.158	51.448	-86.283	C.2	1	RES1	0.000	
11	 C36	-0.097	50.756	-85.057	C.2	1	RES1	0.000	
12	 C37	0.677	51.334	-84.058	C.2	1	RES1	0.000	
13	 C38	1.337	52.510	-84.240	C.2	1	RES1	0.000	
14	 C39	2.048	52.808	-82.996	C.2	1	RES1	0.000	
15	 C40	2.226	51.665	-80.738	C.3	1	RES1	0.000	
16	 C41	3.704	51.250	-80.692	C.3	1	RES1	0.000	
17	 C42	4.157	51.164	-79.235	C.3	1	RES1	0.000	
18	 C43	3.282	50.194	-78.457	C.2	1	RES1	0.000	
19	 C44	1.378	50.670	-79.948	C.2	1	RES1	0.000	
20	 C45	0.910	50.847	-82.694	C.2	1	RES1	0.000	
@<TRIPOS>BOND
1 1 8 1
2 8 9 ar
3 8 13 ar
4 9 10 ar
5 10 11 ar
6 11 12 ar
7 12 13 ar
8 12 20 ar
9 13 14 ar
10 2 14 ar
11 3 14 2
12 2 15 1
13 15 16 1
14 15 19 1
15 16 17 1
16 17 18 1
17 4 18 1
18 5 18 2
19 4 19 1
20 6 19 2
21 2 20 ar
22 7 20 2
@<TRIPOS>SUBSTRUCTURE
1	RES1	1	GROUP	1 ****	RES
