# created with PyMOL 2.5.2
@<TRIPOS>MOLECULE
BRD4_6H0G_E3ligase
20 22 1                 
SMALL
USER_CHARGES
@<TRIPOS>ATOM
1	  O2	2.798	53.758	-82.836	O.2	1	RES1	0.000	
2	  O3	3.697	49.664	-77.429	O.2	1	RES1	0.000	
3	  N4	1.965	54.454	-85.610	N.pl3	1	RES1	0.000	
4	  O4	0.202	50.480	-80.179	O.2	1	RES1	0.000	
5	  N5	1.726	51.808	-82.111	N.2	1	RES1	0.000	
6	  O5	0.475	49.817	-82.250	O.2	1	RES1	0.000	
7	  N6	1.969	50.061	-78.864	N.pl3	1	RES1	0.000	
8	 C15	1.321	53.213	-85.463	C.2	1	RES1	0.000	
9	 C16	0.522	52.676	-86.451	C.2	1	RES1	0.000	
10	 C17	-0.146	51.470	-86.273	C.2	1	RES1	0.000	
11	 C18	-0.120	50.754	-85.076	C.2	1	RES1	0.000	
12	 C19	0.664	51.324	-84.056	C.2	1	RES1	0.000	
13	 C20	1.339	52.512	-84.233	C.2	1	RES1	0.000	
14	 C21	2.061	52.795	-82.994	C.2	1	RES1	0.000	
15	 C22	2.241	51.657	-80.725	C.3	1	RES1	0.000	
16	 C23	3.700	51.247	-80.676	C.3	1	RES1	0.000	
17	 C24	4.144	51.147	-79.239	C.3	1	RES1	0.000	
18	 C25	3.288	50.221	-78.433	C.2	1	RES1	0.000	
19	 C26	1.363	50.692	-79.949	C.2	1	RES1	0.000	
20	 C27	0.914	50.845	-82.716	C.2	1	RES1	0.000	
@<TRIPOS>BOND
1 1 14 2
2 3 8 1
3 8 9 ar
4 8 13 ar
5 9 10 ar
6 10 11 ar
7 11 12 ar
8 12 13 ar
9 12 20 ar
10 13 14 ar
11 5 14 ar
12 5 15 1
13 15 16 1
14 15 19 1
15 16 17 1
16 17 18 1
17 2 18 2
18 7 18 1
19 4 19 2
20 7 19 1
21 5 20 ar
22 6 20 2
@<TRIPOS>SUBSTRUCTURE
1	RES1	1	GROUP	1 ****	RES
