# created with PyMOL 2.5.2
@<TRIPOS>MOLECULE
CDK6_6H0G_E3ligase
20 22 1                 
SMALL
USER_CHARGES
@<TRIPOS>ATOM
1	  N5	1.986	54.438	-85.592	N.pl3	1	RES1	0.000	
2	  N6	1.738	51.765	-82.123	N.2	1	RES1	0.000	
3	  N7	1.989	50.081	-78.854	N.pl3	1	RES1	0.000	
4	  O7	2.827	53.726	-82.855	O.2	1	RES1	0.000	
5	  O8	3.656	49.703	-77.401	O.2	1	RES1	0.000	
6	  O9	0.211	50.420	-80.218	O.2	1	RES1	0.000	
7	 O10	0.411	49.828	-82.246	O.2	1	RES1	0.000	
8	 C39	1.318	53.198	-85.438	C.2	1	RES1	0.000	
9	 C40	0.530	52.695	-86.476	C.2	1	RES1	0.000	
10	 C41	-0.203	51.468	-86.287	C.2	1	RES1	0.000	
11	 C42	-0.133	50.789	-85.070	C.2	1	RES1	0.000	
12	 C43	0.661	51.346	-84.071	C.2	1	RES1	0.000	
13	 C44	1.340	52.505	-84.236	C.2	1	RES1	0.000	
14	 C45	2.088	52.812	-83.001	C.2	1	RES1	0.000	
15	 C46	2.251	51.630	-80.747	C.3	1	RES1	0.000	
16	 C47	3.737	51.251	-80.658	C.3	1	RES1	0.000	
17	 C48	4.154	51.191	-79.202	C.3	1	RES1	0.000	
18	 C49	3.283	50.240	-78.410	C.2	1	RES1	0.000	
19	 C50	1.385	50.654	-79.977	C.2	1	RES1	0.000	
20	 C51	0.896	50.852	-82.702	C.2	1	RES1	0.000	
@<TRIPOS>BOND
1 7 20 2
2 1 8 1
3 8 9 ar
4 8 13 ar
5 9 10 ar
6 10 11 ar
7 11 12 ar
8 12 13 ar
9 12 20 ar
10 13 14 ar
11 2 14 ar
12 4 14 2
13 2 15 1
14 15 16 1
15 15 19 1
16 16 17 1
17 17 18 1
18 3 18 1
19 5 18 2
20 3 19 1
21 6 19 2
22 2 20 ar
@<TRIPOS>SUBSTRUCTURE
1	RES1	1	GROUP	1 ****	RES
