# created with PyMOL 2.5.2
@<TRIPOS>MOLECULE
CDK6_6H0G_E3ligase
20 22 1                 
SMALL
USER_CHARGES
@<TRIPOS>ATOM
1	  N5	1.983	54.441	-85.591	N.pl3	1	RES1	0.000	
2	  N6	1.724	51.781	-82.111	N.2	1	RES1	0.000	
3	  N7	1.983	50.057	-78.861	N.pl3	1	RES1	0.000	
4	  O9	2.820	53.749	-82.828	O.2	1	RES1	0.000	
5	 O10	3.712	49.697	-77.407	O.2	1	RES1	0.000	
6	 O11	0.208	50.448	-80.184	O.2	1	RES1	0.000	
7	 O12	0.422	49.813	-82.266	O.2	1	RES1	0.000	
8	 C37	1.343	53.217	-85.464	C.2	1	RES1	0.000	
9	 C38	0.526	52.678	-86.464	C.2	1	RES1	0.000	
10	 C39	-0.195	51.482	-86.270	C.2	1	RES1	0.000	
11	 C40	-0.132	50.776	-85.097	C.2	1	RES1	0.000	
12	 C41	0.666	51.318	-84.064	C.2	1	RES1	0.000	
13	 C42	1.362	52.507	-84.246	C.2	1	RES1	0.000	
14	 C43	2.067	52.806	-83.002	C.2	1	RES1	0.000	
15	 C44	2.238	51.642	-80.754	C.3	1	RES1	0.000	
16	 C45	3.712	51.246	-80.668	C.3	1	RES1	0.000	
17	 C46	4.150	51.195	-79.211	C.3	1	RES1	0.000	
18	 C47	3.287	50.249	-78.404	C.2	1	RES1	0.000	
19	 C48	1.354	50.662	-79.941	C.2	1	RES1	0.000	
20	 C49	0.897	50.831	-82.731	C.2	1	RES1	0.000	
@<TRIPOS>BOND
1 5 18 2
2 6 19 2
3 7 20 2
4 1 8 1
5 8 9 ar
6 8 13 ar
7 9 10 ar
8 10 11 ar
9 11 12 ar
10 12 13 ar
11 12 20 ar
12 13 14 ar
13 2 14 ar
14 4 14 2
15 2 15 1
16 15 16 1
17 15 19 1
18 16 17 1
19 17 18 1
20 3 18 1
21 3 19 1
22 2 20 ar
@<TRIPOS>SUBSTRUCTURE
1	RES1	1	GROUP	1 ****	RES
