# created with PyMOL 2.5.2
@<TRIPOS>MOLECULE
BRAF_6H0G_E3ligase
20 22 1                 
SMALL
USER_CHARGES
@<TRIPOS>ATOM
1	  N8	1.943	54.441	-85.601	N.pl3	1	RES1	0.000	
2	  N9	1.738	51.802	-82.111	N.2	1	RES1	0.000	
3	 N10	1.981	50.068	-78.872	N.pl3	1	RES1	0.000	
4	 O10	2.818	53.756	-82.863	O.2	1	RES1	0.000	
5	 O11	3.676	49.661	-77.431	O.3	1	RES1	0.000	
6	 O12	0.197	50.461	-80.204	O.2	1	RES1	0.000	
7	 O13	0.450	49.849	-82.255	O.2	1	RES1	0.000	
8	 C36	1.325	53.210	-85.453	C.2	1	RES1	0.000	
9	 C37	0.517	52.671	-86.457	C.2	1	RES1	0.000	
10	 C38	-0.199	51.461	-86.295	C.2	1	RES1	0.000	
11	 C39	-0.107	50.764	-85.057	C.2	1	RES1	0.000	
12	 C40	0.675	51.334	-84.061	C.2	1	RES1	0.000	
13	 C41	1.358	52.522	-84.235	C.2	1	RES1	0.000	
14	 C42	2.074	52.790	-83.023	C.2	1	RES1	0.000	
15	 C43	2.251	51.659	-80.719	C.3	1	RES1	0.000	
16	 C44	3.720	51.241	-80.658	C.3	1	RES1	0.000	
17	 C45	4.145	51.162	-79.210	C.3	1	RES1	0.000	
18	 C46	3.275	50.206	-78.414	C.3	1	RES1	0.000	
19	 C47	1.368	50.680	-79.948	C.2	1	RES1	0.000	
20	 C48	0.919	50.854	-82.699	C.2	1	RES1	0.000	
@<TRIPOS>BOND
1 3 18 1
2 3 19 1
3 4 14 2
4 5 18 1
5 6 19 2
6 7 20 2
7 1 8 1
8 8 9 ar
9 8 13 ar
10 9 10 ar
11 10 11 ar
12 11 12 ar
13 12 13 ar
14 12 20 ar
15 13 14 ar
16 2 14 ar
17 2 15 1
18 15 16 1
19 15 19 1
20 16 17 1
21 17 18 1
22 2 20 ar
@<TRIPOS>SUBSTRUCTURE
1	RES1	1	GROUP	1 ****	RES
