# created with PyMOL 2.5.2
@<TRIPOS>MOLECULE
BRAF_6H0G_E3ligase
20 22 1                 
SMALL
USER_CHARGES
@<TRIPOS>ATOM
1	  N8	2.104	54.370	-85.625	N.pl3	1	RES1	0.000	
2	  N9	1.742	51.711	-82.124	N.2	1	RES1	0.000	
3	 N10	2.016	50.048	-78.889	N.pl3	1	RES1	0.000	
4	 O12	2.748	53.717	-82.786	O.2	1	RES1	0.000	
5	 O13	3.727	49.733	-77.412	O.2	1	RES1	0.000	
6	 O14	0.261	50.314	-80.230	O.2	1	RES1	0.000	
7	 O15	0.309	49.832	-82.272	O.2	1	RES1	0.000	
8	 C40	1.327	53.214	-85.414	C.2	1	RES1	0.000	
9	 C41	0.559	52.703	-86.475	C.2	1	RES1	0.000	
10	 C42	-0.178	51.518	-86.308	C.2	1	RES1	0.000	
11	 C43	-0.160	50.801	-85.091	C.2	1	RES1	0.000	
12	 C44	0.631	51.346	-84.079	C.2	1	RES1	0.000	
13	 C45	1.342	52.504	-84.245	C.2	1	RES1	0.000	
14	 C46	2.064	52.762	-82.986	C.2	1	RES1	0.000	
15	 C47	2.232	51.630	-80.736	C.3	1	RES1	0.000	
16	 C48	3.700	51.344	-80.649	C.3	1	RES1	0.000	
17	 C49	4.135	51.311	-79.175	C.3	1	RES1	0.000	
18	 C50	3.303	50.287	-78.383	C.2	1	RES1	0.000	
19	 C51	1.403	50.612	-79.961	C.2	1	RES1	0.000	
20	 C52	0.861	50.836	-82.724	C.2	1	RES1	0.000	
@<TRIPOS>BOND
1 3 18 1
2 3 19 1
3 4 14 2
4 5 18 2
5 6 19 2
6 7 20 2
7 1 8 1
8 8 9 ar
9 8 13 ar
10 9 10 ar
11 10 11 ar
12 11 12 ar
13 12 13 ar
14 12 20 ar
15 13 14 ar
16 2 14 ar
17 2 15 1
18 15 16 1
19 15 19 1
20 16 17 1
21 17 18 1
22 2 20 ar
@<TRIPOS>SUBSTRUCTURE
1	RES1	1	GROUP	1 ****	RES
