# created with PyMOL 2.5.2
@<TRIPOS>MOLECULE
BRAF_6H0G_E3ligase
20 22 1                 
SMALL
USER_CHARGES
@<TRIPOS>ATOM
1	  O8	2.797	53.783	-82.844	O.2	1	RES1	0.000	
2	  N9	1.970	54.446	-85.589	N.pl3	1	RES1	0.000	
3	  O9	3.689	49.656	-77.421	O.3	1	RES1	0.000	
4	 N10	1.715	51.796	-82.120	N.2	1	RES1	0.000	
5	 O10	0.196	50.471	-80.196	O.2	1	RES1	0.000	
6	 N11	2.001	50.068	-78.858	N.pl3	1	RES1	0.000	
7	 O11	0.446	49.827	-82.235	O.2	1	RES1	0.000	
8	 C35	1.328	53.200	-85.445	C.2	1	RES1	0.000	
9	 C36	0.535	52.668	-86.455	C.2	1	RES1	0.000	
10	 C37	-0.151	51.459	-86.280	C.2	1	RES1	0.000	
11	 C38	-0.113	50.760	-85.082	C.2	1	RES1	0.000	
12	 C39	0.645	51.332	-84.067	C.2	1	RES1	0.000	
13	 C40	1.353	52.498	-84.233	C.2	1	RES1	0.000	
14	 C41	2.046	52.798	-82.994	C.2	1	RES1	0.000	
15	 C42	2.220	51.651	-80.743	C.3	1	RES1	0.000	
16	 C43	3.744	51.249	-80.687	C.3	1	RES1	0.000	
17	 C44	4.157	51.185	-79.211	C.3	1	RES1	0.000	
18	 C45	3.285	50.229	-78.423	C.3	1	RES1	0.000	
19	 C46	1.376	50.655	-79.968	C.2	1	RES1	0.000	
20	 C47	0.884	50.861	-82.716	C.2	1	RES1	0.000	
@<TRIPOS>BOND
1 4 14 ar
2 4 15 1
3 4 20 ar
4 5 19 2
5 6 18 1
6 6 19 1
7 7 20 2
8 2 8 1
9 8 9 ar
10 8 13 ar
11 9 10 ar
12 10 11 ar
13 11 12 ar
14 12 13 ar
15 12 20 ar
16 13 14 ar
17 1 14 2
18 15 16 1
19 15 19 1
20 16 17 1
21 17 18 1
22 3 18 1
@<TRIPOS>SUBSTRUCTURE
1	RES1	1	GROUP	1 ****	RES
