# created with PyMOL 2.5.2
@<TRIPOS>MOLECULE
BRAF_6H0G_E3ligase
20 22 1                 
SMALL
USER_CHARGES
@<TRIPOS>ATOM
1	  N6	2.002	54.441	-85.561	N.pl3	1	RES1	0.000	
2	  N7	1.724	51.765	-82.122	N.2	1	RES1	0.000	
3	  O7	2.803	53.718	-82.833	O.2	1	RES1	0.000	
4	  N8	2.000	50.083	-78.855	N.pl3	1	RES1	0.000	
5	  O8	3.696	49.714	-77.407	O.2	1	RES1	0.000	
6	  O9	0.204	50.444	-80.179	O.2	1	RES1	0.000	
7	 O10	0.418	49.808	-82.260	O.2	1	RES1	0.000	
8	 C36	1.329	53.209	-85.447	C.2	1	RES1	0.000	
9	 C37	0.519	52.695	-86.450	C.2	1	RES1	0.000	
10	 C38	-0.179	51.501	-86.320	C.2	1	RES1	0.000	
11	 C39	-0.138	50.772	-85.092	C.2	1	RES1	0.000	
12	 C40	0.652	51.325	-84.084	C.2	1	RES1	0.000	
13	 C41	1.386	52.487	-84.238	C.2	1	RES1	0.000	
14	 C42	2.064	52.781	-82.989	C.2	1	RES1	0.000	
15	 C43	2.240	51.629	-80.765	C.3	1	RES1	0.000	
16	 C44	3.697	51.245	-80.677	C.3	1	RES1	0.000	
17	 C45	4.136	51.211	-79.206	C.3	1	RES1	0.000	
18	 C46	3.304	50.271	-78.416	C.2	1	RES1	0.000	
19	 C47	1.383	50.653	-79.944	C.2	1	RES1	0.000	
20	 C48	0.885	50.841	-82.720	C.2	1	RES1	0.000	
@<TRIPOS>BOND
1 7 20 2
2 1 8 1
3 8 9 ar
4 8 13 ar
5 9 10 ar
6 10 11 ar
7 11 12 ar
8 12 13 ar
9 12 20 ar
10 13 14 ar
11 2 14 ar
12 3 14 2
13 2 15 1
14 15 16 1
15 15 19 1
16 16 17 1
17 17 18 1
18 4 18 1
19 5 18 2
20 4 19 1
21 6 19 2
22 2 20 ar
@<TRIPOS>SUBSTRUCTURE
1	RES1	1	GROUP	1 ****	RES
