# created with PyMOL 2.5.2
@<TRIPOS>MOLECULE
BRAF_6H0G_E3ligase
20 22 1                 
SMALL
USER_CHARGES
@<TRIPOS>ATOM
1	  N6	1.984	54.434	-85.599	N.pl3	1	RES1	0.000	
2	  N7	1.710	51.776	-82.122	N.2	1	RES1	0.000	
3	  N8	1.992	50.072	-78.874	N.pl3	1	RES1	0.000	
4	  O8	2.816	53.734	-82.828	O.2	1	RES1	0.000	
5	  O9	3.709	49.710	-77.398	O.2	1	RES1	0.000	
6	 O10	0.202	50.436	-80.151	O.2	1	RES1	0.000	
7	 O11	0.424	49.809	-82.266	O.2	1	RES1	0.000	
8	 C38	1.332	53.222	-85.452	C.2	1	RES1	0.000	
9	 C39	0.532	52.684	-86.470	C.2	1	RES1	0.000	
10	 C40	-0.194	51.477	-86.300	C.2	1	RES1	0.000	
11	 C41	-0.107	50.784	-85.078	C.2	1	RES1	0.000	
12	 C42	0.662	51.336	-84.075	C.2	1	RES1	0.000	
13	 C43	1.357	52.503	-84.240	C.2	1	RES1	0.000	
14	 C44	2.068	52.799	-83.007	C.2	1	RES1	0.000	
15	 C45	2.230	51.638	-80.746	C.3	1	RES1	0.000	
16	 C46	3.705	51.232	-80.673	C.3	1	RES1	0.000	
17	 C47	4.137	51.198	-79.209	C.3	1	RES1	0.000	
18	 C48	3.300	50.251	-78.417	C.2	1	RES1	0.000	
19	 C49	1.365	50.643	-79.944	C.2	1	RES1	0.000	
20	 C50	0.902	50.858	-82.716	C.2	1	RES1	0.000	
@<TRIPOS>BOND
1 6 19 2
2 7 20 2
3 1 8 1
4 8 9 ar
5 8 13 ar
6 9 10 ar
7 10 11 ar
8 11 12 ar
9 12 13 ar
10 12 20 ar
11 13 14 ar
12 2 14 ar
13 4 14 2
14 2 15 1
15 15 16 1
16 15 19 1
17 16 17 1
18 17 18 1
19 3 18 1
20 5 18 2
21 3 19 1
22 2 20 ar
@<TRIPOS>SUBSTRUCTURE
1	RES1	1	GROUP	1 ****	RES
