# created with PyMOL 2.5.2
@<TRIPOS>MOLECULE
BRAF_6H0G_E3ligase
20 22 1                 
SMALL
USER_CHARGES
@<TRIPOS>ATOM
1	  N6	1.972	54.453	-85.590	N.pl3	1	RES1	0.000	
2	  N7	1.753	51.795	-82.119	N.2	1	RES1	0.000	
3	  N8	1.974	50.079	-78.887	N.pl3	1	RES1	0.000	
4	  O9	2.805	53.753	-82.842	O.2	1	RES1	0.000	
5	 O10	3.666	49.658	-77.417	O.3	1	RES1	0.000	
6	 O11	0.204	50.471	-80.245	O.2	1	RES1	0.000	
7	 O12	0.445	49.840	-82.225	O.2	1	RES1	0.000	
8	 C40	1.320	53.207	-85.447	C.2	1	RES1	0.000	
9	 C41	0.514	52.657	-86.467	C.2	1	RES1	0.000	
10	 C42	-0.203	51.466	-86.268	C.2	1	RES1	0.000	
11	 C43	-0.131	50.775	-85.059	C.2	1	RES1	0.000	
12	 C44	0.663	51.349	-84.073	C.2	1	RES1	0.000	
13	 C45	1.352	52.493	-84.245	C.2	1	RES1	0.000	
14	 C46	2.072	52.792	-83.007	C.2	1	RES1	0.000	
15	 C47	2.258	51.654	-80.734	C.3	1	RES1	0.000	
16	 C48	3.741	51.271	-80.655	C.3	1	RES1	0.000	
17	 C49	4.162	51.157	-79.190	C.3	1	RES1	0.000	
18	 C50	3.271	50.207	-78.427	C.3	1	RES1	0.000	
19	 C51	1.366	50.661	-79.976	C.2	1	RES1	0.000	
20	 C52	0.920	50.855	-82.692	C.2	1	RES1	0.000	
@<TRIPOS>BOND
1 5 18 1
2 6 19 2
3 7 20 2
4 1 8 1
5 8 9 ar
6 8 13 ar
7 9 10 ar
8 10 11 ar
9 11 12 ar
10 12 13 ar
11 12 20 ar
12 13 14 ar
13 2 14 ar
14 4 14 2
15 2 15 1
16 15 16 1
17 15 19 1
18 16 17 1
19 17 18 1
20 3 18 1
21 3 19 1
22 2 20 ar
@<TRIPOS>SUBSTRUCTURE
1	RES1	1	GROUP	1 ****	RES
