# created with PyMOL 2.5.2
@<TRIPOS>MOLECULE
BRAF_6H0G_E3ligase
20 22 1                 
SMALL
USER_CHARGES
@<TRIPOS>ATOM
1	  N6	1.994	54.446	-85.600	N.pl3	1	RES1	0.000	
2	  N7	1.735	51.788	-82.111	N.2	1	RES1	0.000	
3	  N8	2.001	50.063	-78.877	N.pl3	1	RES1	0.000	
4	 O10	2.823	53.736	-82.859	O.2	1	RES1	0.000	
5	 O11	3.666	49.686	-77.403	O.3	1	RES1	0.000	
6	 O12	0.219	50.411	-80.203	O.2	1	RES1	0.000	
7	 O13	0.433	49.838	-82.243	O.2	1	RES1	0.000	
8	 C42	1.339	53.210	-85.453	C.2	1	RES1	0.000	
9	 C43	0.527	52.684	-86.474	C.2	1	RES1	0.000	
10	 C44	-0.201	51.467	-86.288	C.2	1	RES1	0.000	
11	 C45	-0.140	50.787	-85.065	C.2	1	RES1	0.000	
12	 C46	0.654	51.333	-84.075	C.2	1	RES1	0.000	
13	 C47	1.345	52.493	-84.230	C.2	1	RES1	0.000	
14	 C48	2.055	52.793	-82.999	C.2	1	RES1	0.000	
15	 C49	2.247	51.649	-80.728	C.3	1	RES1	0.000	
16	 C50	3.730	51.265	-80.653	C.3	1	RES1	0.000	
17	 C51	4.150	51.193	-79.203	C.3	1	RES1	0.000	
18	 C52	3.267	50.242	-78.412	C.3	1	RES1	0.000	
19	 C53	1.386	50.648	-79.979	C.2	1	RES1	0.000	
20	 C54	0.894	50.862	-82.710	C.2	1	RES1	0.000	
@<TRIPOS>BOND
1 4 14 2
2 5 18 1
3 6 19 2
4 7 20 2
5 1 8 1
6 8 9 ar
7 8 13 ar
8 9 10 ar
9 10 11 ar
10 11 12 ar
11 12 13 ar
12 12 20 ar
13 13 14 ar
14 2 14 ar
15 2 15 1
16 15 16 1
17 15 19 1
18 16 17 1
19 17 18 1
20 3 18 1
21 3 19 1
22 2 20 ar
@<TRIPOS>SUBSTRUCTURE
1	RES1	1	GROUP	1 ****	RES
