# created with PyMOL 2.5.2
@<TRIPOS>MOLECULE
BRAF_6H0G_E3ligase
20 22 1                 
SMALL
USER_CHARGES
@<TRIPOS>ATOM
1	  N7	1.956	54.441	-85.598	N.pl3	1	RES1	0.000	
2	  N8	1.739	51.799	-82.104	N.2	1	RES1	0.000	
3	  N9	1.997	50.064	-78.871	N.pl3	1	RES1	0.000	
4	 O15	2.807	53.760	-82.854	O.2	1	RES1	0.000	
5	 O16	3.671	49.659	-77.428	O.3	1	RES1	0.000	
6	 O17	0.210	50.447	-80.230	O.2	1	RES1	0.000	
7	 O18	0.432	49.848	-82.260	O.2	1	RES1	0.000	
8	 C53	1.324	53.202	-85.432	C.2	1	RES1	0.000	
9	 C54	0.544	52.671	-86.470	C.2	1	RES1	0.000	
10	 C55	-0.188	51.455	-86.290	C.2	1	RES1	0.000	
11	 C56	-0.124	50.768	-85.063	C.2	1	RES1	0.000	
12	 C57	0.665	51.333	-84.048	C.2	1	RES1	0.000	
13	 C58	1.350	52.512	-84.231	C.2	1	RES1	0.000	
14	 C59	2.067	52.793	-82.997	C.2	1	RES1	0.000	
15	 C60	2.244	51.656	-80.722	C.3	1	RES1	0.000	
16	 C61	3.734	51.253	-80.651	C.3	1	RES1	0.000	
17	 C62	4.141	51.179	-79.201	C.3	1	RES1	0.000	
18	 C63	3.279	50.229	-78.433	C.3	1	RES1	0.000	
19	 C64	1.386	50.668	-79.973	C.2	1	RES1	0.000	
20	 C65	0.892	50.856	-82.712	C.2	1	RES1	0.000	
@<TRIPOS>BOND
1 4 14 2
2 5 18 1
3 6 19 2
4 7 20 2
5 1 8 1
6 8 9 ar
7 8 13 ar
8 9 10 ar
9 10 11 ar
10 11 12 ar
11 12 13 ar
12 12 20 ar
13 13 14 ar
14 2 14 ar
15 2 15 1
16 15 16 1
17 15 19 1
18 16 17 1
19 17 18 1
20 3 18 1
21 3 19 1
22 2 20 ar
@<TRIPOS>SUBSTRUCTURE
1	RES1	1	GROUP	1 ****	RES
