# created with PyMOL 2.5.2
@<TRIPOS>MOLECULE
BRD4_6H0G_E3ligase
20 22 1                 
SMALL
USER_CHARGES
@<TRIPOS>ATOM
1	  O2	2.825	53.783	-82.879	O.2	1	RES1	0.000	
2	  O3	3.659	49.636	-77.435	O.3	1	RES1	0.000	
3	  N4	1.975	54.406	-85.625	N.pl3	1	RES1	0.000	
4	  O4	0.220	50.407	-80.256	O.2	1	RES1	0.000	
5	  N5	1.742	51.822	-82.103	N.2	1	RES1	0.000	
6	  O5	0.440	49.865	-82.202	O.2	1	RES1	0.000	
7	  N6	1.991	50.023	-78.902	N.pl3	1	RES1	0.000	
8	 C16	1.335	53.196	-85.447	C.2	1	RES1	0.000	
9	 C17	0.507	52.652	-86.474	C.2	1	RES1	0.000	
10	 C18	-0.190	51.457	-86.259	C.2	1	RES1	0.000	
11	 C19	-0.113	50.784	-85.034	C.2	1	RES1	0.000	
12	 C20	0.667	51.332	-84.047	C.2	1	RES1	0.000	
13	 C21	1.351	52.499	-84.244	C.2	1	RES1	0.000	
14	 C22	2.069	52.828	-82.995	C.2	1	RES1	0.000	
15	 C23	2.231	51.684	-80.720	C.3	1	RES1	0.000	
16	 C24	3.717	51.304	-80.637	C.3	1	RES1	0.000	
17	 C25	4.152	51.194	-79.192	C.3	1	RES1	0.000	
18	 C26	3.256	50.203	-78.438	C.3	1	RES1	0.000	
19	 C27	1.381	50.620	-79.990	C.2	1	RES1	0.000	
20	 C28	0.909	50.896	-82.686	C.2	1	RES1	0.000	
@<TRIPOS>BOND
1 1 14 2
2 3 8 1
3 8 9 ar
4 8 13 ar
5 9 10 ar
6 10 11 ar
7 11 12 ar
8 12 13 ar
9 12 20 ar
10 13 14 ar
11 5 14 ar
12 5 15 1
13 15 16 1
14 15 19 1
15 16 17 1
16 17 18 1
17 2 18 1
18 7 18 1
19 4 19 2
20 7 19 1
21 5 20 ar
22 6 20 2
@<TRIPOS>SUBSTRUCTURE
1	RES1	1	GROUP	1 ****	RES
