# created with PyMOL 2.5.2
@<TRIPOS>MOLECULE
BRAF_7BQU_E3ligase
19 21 1                 
SMALL
USER_CHARGES
@<TRIPOS>ATOM
1	  O5	27.391	17.236	11.915	O.2	1	RES1	0.000	
2	  N6	25.394	17.729	13.128	N.2	1	RES1	0.000	
3	  O6	26.356	20.243	17.933	O.2	1	RES1	0.000	
4	  N7	25.071	19.876	16.095	N.pl3	1	RES1	0.000	
5	  O7	23.732	19.613	14.285	O.2	1	RES1	0.000	
6	  O8	23.107	17.698	13.649	O.2	1	RES1	0.000	
7	 C32	25.559	15.493	10.250	C.2	1	RES1	0.000	
8	 C33	24.481	14.814	9.673	C.2	1	RES1	0.000	
9	 C34	23.180	14.957	10.217	C.2	1	RES1	0.000	
10	 C35	22.948	15.779	11.317	C.2	1	RES1	0.000	
11	 C36	24.031	16.453	11.848	C.2	1	RES1	0.000	
12	 C37	25.294	16.288	11.345	C.2	1	RES1	0.000	
13	 C38	26.187	17.141	12.150	C.2	1	RES1	0.000	
14	 C39	25.947	18.644	14.114	C.3	1	RES1	0.000	
15	 C40	26.839	17.997	15.150	C.3	1	RES1	0.000	
16	 C41	27.375	19.002	16.147	C.3	1	RES1	0.000	
17	 C42	26.229	19.739	16.805	C.2	1	RES1	0.000	
18	 C43	24.795	19.405	14.818	C.2	1	RES1	0.000	
19	 C44	24.076	17.344	13.001	C.2	1	RES1	0.000	
@<TRIPOS>BOND
1 7 8 ar
2 7 12 ar
3 8 9 ar
4 9 10 ar
5 10 11 ar
6 11 12 ar
7 11 19 ar
8 12 13 ar
9 1 13 2
10 2 13 ar
11 2 14 1
12 14 15 1
13 14 18 1
14 15 16 1
15 16 17 1
16 3 17 2
17 4 17 1
18 4 18 1
19 5 18 2
20 2 19 ar
21 6 19 2
@<TRIPOS>SUBSTRUCTURE
1	RES1	1	GROUP	1 ****	RES
