# created with PyMOL 2.5.2
@<TRIPOS>MOLECULE
BRAF_6H0G_E3ligase
20 22 1                 
SMALL
USER_CHARGES
@<TRIPOS>ATOM
1	  O7	2.773	53.764	-82.809	O.2	1	RES1	0.000	
2	  O8	3.730	49.682	-77.415	O.2	1	RES1	0.000	
3	  N9	1.969	54.464	-85.579	N.pl3	1	RES1	0.000	
4	  O9	0.202	50.460	-80.169	O.2	1	RES1	0.000	
5	 N10	1.699	51.786	-82.098	N.2	1	RES1	0.000	
6	 O10	0.433	49.825	-82.271	O.2	1	RES1	0.000	
7	 N11	1.997	50.085	-78.849	N.pl3	1	RES1	0.000	
8	 C33	1.344	53.214	-85.451	C.2	1	RES1	0.000	
9	 C34	0.543	52.662	-86.463	C.2	1	RES1	0.000	
10	 C35	-0.158	51.460	-86.306	C.2	1	RES1	0.000	
11	 C36	-0.094	50.751	-85.103	C.2	1	RES1	0.000	
12	 C37	0.662	51.339	-84.056	C.2	1	RES1	0.000	
13	 C38	1.358	52.501	-84.241	C.2	1	RES1	0.000	
14	 C39	2.030	52.798	-82.992	C.2	1	RES1	0.000	
15	 C40	2.213	51.636	-80.733	C.3	1	RES1	0.000	
16	 C41	3.686	51.237	-80.692	C.3	1	RES1	0.000	
17	 C42	4.155	51.178	-79.248	C.3	1	RES1	0.000	
18	 C43	3.317	50.229	-78.419	C.2	1	RES1	0.000	
19	 C44	1.363	50.679	-79.954	C.2	1	RES1	0.000	
20	 C45	0.903	50.844	-82.718	C.2	1	RES1	0.000	
@<TRIPOS>BOND
1 5 14 ar
2 5 15 1
3 5 20 ar
4 6 20 2
5 7 18 1
6 7 19 1
7 3 8 1
8 8 9 ar
9 8 13 ar
10 9 10 ar
11 10 11 ar
12 11 12 ar
13 12 13 ar
14 12 20 ar
15 13 14 ar
16 1 14 2
17 15 16 1
18 15 19 1
19 16 17 1
20 17 18 1
21 2 18 2
22 4 19 2
@<TRIPOS>SUBSTRUCTURE
1	RES1	1	GROUP	1 ****	RES
