# created with PyMOL 2.5.2
@<TRIPOS>MOLECULE
BRAF_6H0G_E3ligase
20 22 1                 
SMALL
USER_CHARGES
@<TRIPOS>ATOM
1	  O4	2.838	53.722	-82.849	O.2	1	RES1	0.000	
2	  O5	3.671	49.710	-77.379	O.2	1	RES1	0.000	
3	  O6	0.215	50.404	-80.253	O.2	1	RES1	0.000	
4	  O7	0.409	49.841	-82.253	O.2	1	RES1	0.000	
5	 N10	1.989	54.424	-85.613	N.pl3	1	RES1	0.000	
6	 N11	1.734	51.761	-82.137	N.2	1	RES1	0.000	
7	 N12	1.983	50.067	-78.857	N.pl3	1	RES1	0.000	
8	 C39	1.345	53.208	-85.454	C.2	1	RES1	0.000	
9	 C40	0.541	52.688	-86.454	C.2	1	RES1	0.000	
10	 C41	-0.219	51.488	-86.295	C.2	1	RES1	0.000	
11	 C42	-0.160	50.804	-85.063	C.2	1	RES1	0.000	
12	 C43	0.647	51.332	-84.073	C.2	1	RES1	0.000	
13	 C44	1.346	52.492	-84.224	C.2	1	RES1	0.000	
14	 C45	2.085	52.784	-82.981	C.2	1	RES1	0.000	
15	 C46	2.253	51.631	-80.743	C.3	1	RES1	0.000	
16	 C47	3.751	51.252	-80.663	C.3	1	RES1	0.000	
17	 C48	4.141	51.235	-79.202	C.3	1	RES1	0.000	
18	 C49	3.275	50.251	-78.401	C.2	1	RES1	0.000	
19	 C50	1.396	50.635	-79.976	C.2	1	RES1	0.000	
20	 C51	0.885	50.863	-82.699	C.2	1	RES1	0.000	
@<TRIPOS>BOND
1 1 14 2
2 5 8 1
3 6 14 ar
4 6 15 1
5 6 20 ar
6 7 18 1
7 7 19 1
8 8 9 ar
9 8 13 ar
10 9 10 ar
11 10 11 ar
12 11 12 ar
13 12 13 ar
14 12 20 ar
15 13 14 ar
16 15 16 1
17 15 19 1
18 16 17 1
19 17 18 1
20 2 18 2
21 3 19 2
22 4 20 2
@<TRIPOS>SUBSTRUCTURE
1	RES1	1	GROUP	1 ****	RES
