# created with PyMOL 2.5.2
@<TRIPOS>MOLECULE
BRAF_6H0G_E3ligase
20 22 1                 
SMALL
USER_CHARGES
@<TRIPOS>ATOM
1	  O4	2.804	53.757	-82.860	O.2	1	RES1	0.000	
2	  O5	3.692	49.671	-77.418	O.2	1	RES1	0.000	
3	  O6	0.218	50.456	-80.197	O.2	1	RES1	0.000	
4	  O7	0.447	49.815	-82.253	O.2	1	RES1	0.000	
5	  N9	1.968	54.458	-85.593	N.pl3	1	RES1	0.000	
6	 N10	1.721	51.798	-82.111	N.2	1	RES1	0.000	
7	 N11	1.985	50.067	-78.863	N.pl3	1	RES1	0.000	
8	 C33	1.334	53.202	-85.450	C.2	1	RES1	0.000	
9	 C34	0.525	52.677	-86.480	C.2	1	RES1	0.000	
10	 C35	-0.183	51.456	-86.294	C.2	1	RES1	0.000	
11	 C36	-0.110	50.773	-85.057	C.2	1	RES1	0.000	
12	 C37	0.668	51.343	-84.070	C.2	1	RES1	0.000	
13	 C38	1.351	52.494	-84.247	C.2	1	RES1	0.000	
14	 C39	2.053	52.796	-82.982	C.2	1	RES1	0.000	
15	 C40	2.231	51.651	-80.730	C.3	1	RES1	0.000	
16	 C41	3.709	51.255	-80.672	C.3	1	RES1	0.000	
17	 C42	4.155	51.170	-79.215	C.3	1	RES1	0.000	
18	 C43	3.267	50.221	-78.424	C.2	1	RES1	0.000	
19	 C44	1.384	50.659	-79.951	C.2	1	RES1	0.000	
20	 C45	0.907	50.873	-82.698	C.2	1	RES1	0.000	
@<TRIPOS>BOND
1 6 14 ar
2 6 15 1
3 6 20 ar
4 7 18 1
5 7 19 1
6 5 8 1
7 8 9 ar
8 8 13 ar
9 9 10 ar
10 10 11 ar
11 11 12 ar
12 12 13 ar
13 12 20 ar
14 13 14 ar
15 1 14 2
16 15 16 1
17 15 19 1
18 16 17 1
19 17 18 1
20 2 18 2
21 3 19 2
22 4 20 2
@<TRIPOS>SUBSTRUCTURE
1	RES1	1	GROUP	1 ****	RES
