# created with PyMOL 2.5.2
@<TRIPOS>MOLECULE
BRAF_6H0G_E3ligase
20 22 1                 
SMALL
USER_CHARGES
@<TRIPOS>ATOM
1	  O6	2.811	53.748	-82.830	O.2	1	RES1	0.000	
2	  O7	3.711	49.685	-77.423	O.2	1	RES1	0.000	
3	  O8	0.218	50.410	-80.209	O.2	1	RES1	0.000	
4	  N9	1.981	54.448	-85.615	N.pl3	1	RES1	0.000	
5	  O9	0.421	49.839	-82.239	O.2	1	RES1	0.000	
6	 N10	1.709	51.795	-82.126	N.2	1	RES1	0.000	
7	 N11	1.990	50.048	-78.848	N.pl3	1	RES1	0.000	
8	 C33	1.341	53.212	-85.448	C.2	1	RES1	0.000	
9	 C34	0.534	52.654	-86.473	C.2	1	RES1	0.000	
10	 C35	-0.158	51.477	-86.283	C.2	1	RES1	0.000	
11	 C36	-0.123	50.759	-85.085	C.2	1	RES1	0.000	
12	 C37	0.652	51.341	-84.091	C.2	1	RES1	0.000	
13	 C38	1.337	52.499	-84.249	C.2	1	RES1	0.000	
14	 C39	2.054	52.811	-82.977	C.2	1	RES1	0.000	
15	 C40	2.225	51.651	-80.722	C.3	1	RES1	0.000	
16	 C41	3.704	51.268	-80.659	C.3	1	RES1	0.000	
17	 C42	4.149	51.200	-79.215	C.3	1	RES1	0.000	
18	 C43	3.290	50.223	-78.427	C.2	1	RES1	0.000	
19	 C44	1.380	50.655	-79.938	C.2	1	RES1	0.000	
20	 C45	0.900	50.869	-82.708	C.2	1	RES1	0.000	
@<TRIPOS>BOND
1 6 14 ar
2 6 15 1
3 6 20 ar
4 7 18 1
5 7 19 1
6 4 8 1
7 8 9 ar
8 8 13 ar
9 9 10 ar
10 10 11 ar
11 11 12 ar
12 12 13 ar
13 12 20 ar
14 13 14 ar
15 1 14 2
16 15 16 1
17 15 19 1
18 16 17 1
19 17 18 1
20 2 18 2
21 3 19 2
22 5 20 2
@<TRIPOS>SUBSTRUCTURE
1	RES1	1	GROUP	1 ****	RES
