# created with PyMOL 2.5.2
@<TRIPOS>MOLECULE
BRAF_6H0G_E3ligase
20 22 1                 
SMALL
USER_CHARGES
@<TRIPOS>ATOM
1	  O7	2.836	53.743	-82.843	O.2	1	RES1	0.000	
2	  O8	3.687	49.720	-77.398	O.2	1	RES1	0.000	
3	  N9	1.989	54.460	-85.596	N.pl3	1	RES1	0.000	
4	  O9	0.200	50.424	-80.215	O.2	1	RES1	0.000	
5	 N10	1.735	51.764	-82.120	N.2	1	RES1	0.000	
6	 O10	0.407	49.813	-82.252	O.2	1	RES1	0.000	
7	 N11	2.005	50.079	-78.850	N.pl3	1	RES1	0.000	
8	 C33	1.341	53.200	-85.450	C.2	1	RES1	0.000	
9	 C34	0.520	52.682	-86.466	C.2	1	RES1	0.000	
10	 C35	-0.203	51.516	-86.295	C.2	1	RES1	0.000	
11	 C36	-0.154	50.785	-85.073	C.2	1	RES1	0.000	
12	 C37	0.643	51.330	-84.071	C.2	1	RES1	0.000	
13	 C38	1.383	52.480	-84.242	C.2	1	RES1	0.000	
14	 C39	2.061	52.782	-83.009	C.2	1	RES1	0.000	
15	 C40	2.247	51.631	-80.758	C.3	1	RES1	0.000	
16	 C41	3.734	51.249	-80.649	C.3	1	RES1	0.000	
17	 C42	4.140	51.200	-79.198	C.3	1	RES1	0.000	
18	 C43	3.268	50.250	-78.408	C.2	1	RES1	0.000	
19	 C44	1.378	50.638	-79.964	C.2	1	RES1	0.000	
20	 C45	0.910	50.846	-82.709	C.2	1	RES1	0.000	
@<TRIPOS>BOND
1 5 14 ar
2 5 15 1
3 5 20 ar
4 6 20 2
5 7 18 1
6 7 19 1
7 3 8 1
8 8 9 ar
9 8 13 ar
10 9 10 ar
11 10 11 ar
12 11 12 ar
13 12 13 ar
14 12 20 ar
15 13 14 ar
16 1 14 2
17 15 16 1
18 15 19 1
19 16 17 1
20 17 18 1
21 2 18 2
22 4 19 2
@<TRIPOS>SUBSTRUCTURE
1	RES1	1	GROUP	1 ****	RES
