# created with PyMOL 2.5.2
@<TRIPOS>MOLECULE
BTK_6H0G_E3ligase
20 22 1                 
SMALL
USER_CHARGES
@<TRIPOS>ATOM
1	  O2	2.798	53.792	-82.836	O.2	1	RES1	0.000	
2	  N3	1.967	54.420	-85.635	N.pl3	1	RES1	0.000	
3	  O3	3.677	49.609	-77.451	O.3	1	RES1	0.000	
4	  N4	1.740	51.829	-82.112	N.2	1	RES1	0.000	
5	  O4	0.221	50.412	-80.242	O.2	1	RES1	0.000	
6	  N5	1.973	50.019	-78.900	N.pl3	1	RES1	0.000	
7	  O5	0.443	49.860	-82.196	O.2	1	RES1	0.000	
8	  C7	1.328	53.194	-85.458	C.2	1	RES1	0.000	
9	  C8	0.532	52.642	-86.465	C.2	1	RES1	0.000	
10	  C9	-0.180	51.443	-86.266	C.2	1	RES1	0.000	
11	 C10	-0.110	50.760	-85.046	C.2	1	RES1	0.000	
12	 C11	0.649	51.351	-84.060	C.2	1	RES1	0.000	
13	 C12	1.356	52.520	-84.245	C.2	1	RES1	0.000	
14	 C13	2.070	52.828	-83.008	C.2	1	RES1	0.000	
15	 C14	2.230	51.682	-80.719	C.3	1	RES1	0.000	
16	 C15	3.732	51.285	-80.646	C.3	1	RES1	0.000	
17	 C16	4.130	51.196	-79.189	C.3	1	RES1	0.000	
18	 C17	3.267	50.203	-78.433	C.3	1	RES1	0.000	
19	 C18	1.397	50.656	-79.984	C.2	1	RES1	0.000	
20	 C19	0.904	50.891	-82.674	C.2	1	RES1	0.000	
@<TRIPOS>BOND
1 2 8 1
2 8 9 ar
3 9 10 ar
4 10 11 ar
5 11 12 ar
6 12 13 ar
7 12 20 ar
8 8 13 ar
9 13 14 ar
10 1 14 2
11 4 14 ar
12 4 15 1
13 15 16 1
14 15 19 1
15 16 17 1
16 17 18 1
17 3 18 1
18 6 18 1
19 5 19 2
20 6 19 1
21 4 20 ar
22 7 20 2
@<TRIPOS>SUBSTRUCTURE
1	RES1	1	GROUP	1 ****	RES
