# created with PyMOL 2.5.2
@<TRIPOS>MOLECULE
BTK_6H0G_E3ligase
20 22 1                 
SMALL
USER_CHARGES
@<TRIPOS>ATOM
1	  O2	2.762	53.750	-82.799	O.2	1	RES1	0.000	
2	  N3	1.977	54.456	-85.572	N.pl3	1	RES1	0.000	
3	  O3	3.745	49.666	-77.434	O.2	1	RES1	0.000	
4	  N4	1.690	51.763	-82.094	N.2	1	RES1	0.000	
5	  O4	0.188	50.482	-80.141	O.2	1	RES1	0.000	
6	  N5	1.993	50.089	-78.841	N.pl3	1	RES1	0.000	
7	  O5	0.434	49.802	-82.281	O.2	1	RES1	0.000	
8	  C8	1.337	53.204	-85.435	C.2	1	RES1	0.000	
9	  C9	0.556	52.687	-86.485	C.2	1	RES1	0.000	
10	 C10	-0.135	51.465	-86.307	C.2	1	RES1	0.000	
11	 C11	-0.086	50.758	-85.101	C.2	1	RES1	0.000	
12	 C12	0.670	51.327	-84.060	C.2	1	RES1	0.000	
13	 C13	1.329	52.495	-84.231	C.2	1	RES1	0.000	
14	 C14	2.025	52.785	-82.964	C.2	1	RES1	0.000	
15	 C15	2.200	51.631	-80.747	C.3	1	RES1	0.000	
16	 C16	3.702	51.249	-80.701	C.3	1	RES1	0.000	
17	 C17	4.164	51.178	-79.255	C.3	1	RES1	0.000	
18	 C18	3.296	50.260	-78.449	C.2	1	RES1	0.000	
19	 C19	1.378	50.703	-79.938	C.2	1	RES1	0.000	
20	 C20	0.897	50.843	-82.732	C.2	1	RES1	0.000	
@<TRIPOS>BOND
1 2 8 1
2 8 9 ar
3 9 10 ar
4 10 11 ar
5 11 12 ar
6 12 13 ar
7 12 20 ar
8 8 13 ar
9 13 14 ar
10 1 14 2
11 4 14 ar
12 4 15 1
13 15 16 1
14 15 19 1
15 16 17 1
16 17 18 1
17 3 18 2
18 6 18 1
19 5 19 2
20 6 19 1
21 4 20 ar
22 7 20 2
@<TRIPOS>SUBSTRUCTURE
1	RES1	1	GROUP	1 ****	RES
