# created with PyMOL 2.5.2
@<TRIPOS>MOLECULE
BTK_6H0G_E3ligase
20 22 1                 
SMALL
USER_CHARGES
@<TRIPOS>ATOM
1	  N3	1.975	54.437	-85.631	N.pl3	1	RES1	0.000	
2	  O3	2.840	53.738	-82.848	O.2	1	RES1	0.000	
3	  N4	1.720	51.782	-82.122	N.2	1	RES1	0.000	
4	  O4	3.698	49.682	-77.409	O.2	1	RES1	0.000	
5	  N5	1.977	50.057	-78.861	N.pl3	1	RES1	0.000	
6	  O5	0.218	50.417	-80.198	O.2	1	RES1	0.000	
7	  O6	0.442	49.818	-82.236	O.2	1	RES1	0.000	
8	  C8	1.322	53.198	-85.445	C.2	1	RES1	0.000	
9	  C9	0.535	52.689	-86.469	C.2	1	RES1	0.000	
10	 C10	-0.185	51.479	-86.298	C.2	1	RES1	0.000	
11	 C11	-0.133	50.780	-85.064	C.2	1	RES1	0.000	
12	 C12	0.667	51.352	-84.060	C.2	1	RES1	0.000	
13	 C13	1.373	52.511	-84.228	C.2	1	RES1	0.000	
14	 C14	2.059	52.796	-83.002	C.2	1	RES1	0.000	
15	 C15	2.237	51.644	-80.744	C.3	1	RES1	0.000	
16	 C16	3.706	51.252	-80.653	C.3	1	RES1	0.000	
17	 C17	4.121	51.213	-79.219	C.3	1	RES1	0.000	
18	 C18	3.298	50.243	-78.408	C.2	1	RES1	0.000	
19	 C19	1.374	50.645	-79.959	C.2	1	RES1	0.000	
20	 C20	0.883	50.860	-82.714	C.2	1	RES1	0.000	
@<TRIPOS>BOND
1 1 8 1
2 8 9 ar
3 9 10 ar
4 10 11 ar
5 11 12 ar
6 12 13 ar
7 12 20 ar
8 8 13 ar
9 13 14 ar
10 2 14 2
11 3 14 ar
12 3 15 1
13 15 16 1
14 15 19 1
15 16 17 1
16 17 18 1
17 4 18 2
18 5 18 1
19 5 19 1
20 6 19 2
21 3 20 ar
22 7 20 2
@<TRIPOS>SUBSTRUCTURE
1	RES1	1	GROUP	1 ****	RES
