# created with PyMOL 2.5.2
@<TRIPOS>MOLECULE
BTK_6H0G_E3ligase
20 22 1                 
SMALL
USER_CHARGES
@<TRIPOS>ATOM
1	  N3	2.127	54.364	-85.602	N.pl3	1	RES1	0.000	
2	  N4	1.715	51.712	-82.136	N.2	1	RES1	0.000	
3	  O4	2.752	53.723	-82.772	O.2	1	RES1	0.000	
4	  N5	2.050	50.039	-78.886	N.pl3	1	RES1	0.000	
5	  O5	3.745	49.757	-77.399	O.2	1	RES1	0.000	
6	  O6	0.257	50.310	-80.230	O.2	1	RES1	0.000	
7	  O7	0.311	49.840	-82.281	O.2	1	RES1	0.000	
8	 C10	1.331	53.237	-85.428	C.2	1	RES1	0.000	
9	 C11	0.550	52.685	-86.477	C.2	1	RES1	0.000	
10	 C12	-0.175	51.511	-86.319	C.2	1	RES1	0.000	
11	 C13	-0.160	50.820	-85.097	C.2	1	RES1	0.000	
12	 C14	0.632	51.338	-84.091	C.2	1	RES1	0.000	
13	 C15	1.341	52.478	-84.234	C.2	1	RES1	0.000	
14	 C16	2.047	52.750	-82.979	C.2	1	RES1	0.000	
15	 C17	2.209	51.643	-80.734	C.3	1	RES1	0.000	
16	 C18	3.712	51.346	-80.639	C.3	1	RES1	0.000	
17	 C19	4.098	51.322	-79.172	C.3	1	RES1	0.000	
18	 C20	3.313	50.286	-78.395	C.2	1	RES1	0.000	
19	 C21	1.413	50.588	-79.967	C.2	1	RES1	0.000	
20	 C22	0.856	50.846	-82.728	C.2	1	RES1	0.000	
@<TRIPOS>BOND
1 1 8 1
2 8 9 ar
3 8 13 ar
4 9 10 ar
5 10 11 ar
6 11 12 ar
7 12 13 ar
8 12 20 ar
9 13 14 ar
10 2 14 ar
11 3 14 2
12 2 15 1
13 15 16 1
14 15 19 1
15 16 17 1
16 17 18 1
17 4 18 1
18 5 18 2
19 4 19 1
20 6 19 2
21 2 20 ar
22 7 20 2
@<TRIPOS>SUBSTRUCTURE
1	RES1	1	GROUP	1 ****	RES
