# created with PyMOL 2.5.2
@<TRIPOS>MOLECULE
BRD4_6H0G_E3ligase
20 22 1                 
SMALL
USER_CHARGES
@<TRIPOS>ATOM
1	  O2	2.831	53.754	-82.852	O.2	1	RES1	0.000	
2	  O3	3.654	49.665	-77.417	O.3	1	RES1	0.000	
3	  N4	1.973	54.449	-85.629	N.pl3	1	RES1	0.000	
4	  O4	0.198	50.476	-80.224	O.2	1	RES1	0.000	
5	  N5	1.747	51.791	-82.108	N.2	1	RES1	0.000	
6	  O5	0.460	49.822	-82.238	O.2	1	RES1	0.000	
7	  N6	1.975	50.072	-78.883	N.pl3	1	RES1	0.000	
8	 C17	1.324	53.224	-85.447	C.2	1	RES1	0.000	
9	 C18	0.496	52.682	-86.447	C.2	1	RES1	0.000	
10	 C19	-0.209	51.470	-86.258	C.2	1	RES1	0.000	
11	 C20	-0.125	50.803	-85.058	C.2	1	RES1	0.000	
12	 C21	0.656	51.320	-84.076	C.2	1	RES1	0.000	
13	 C22	1.348	52.489	-84.257	C.2	1	RES1	0.000	
14	 C23	2.093	52.782	-83.002	C.2	1	RES1	0.000	
15	 C24	2.258	51.654	-80.742	C.3	1	RES1	0.000	
16	 C25	3.722	51.237	-80.659	C.3	1	RES1	0.000	
17	 C26	4.139	51.178	-79.206	C.3	1	RES1	0.000	
18	 C27	3.272	50.224	-78.410	C.3	1	RES1	0.000	
19	 C28	1.374	50.661	-79.950	C.2	1	RES1	0.000	
20	 C29	0.939	50.842	-82.705	C.2	1	RES1	0.000	
@<TRIPOS>BOND
1 1 14 2
2 3 8 1
3 8 9 ar
4 8 13 ar
5 9 10 ar
6 10 11 ar
7 11 12 ar
8 12 13 ar
9 12 20 ar
10 13 14 ar
11 5 14 ar
12 5 15 1
13 15 16 1
14 15 19 1
15 16 17 1
16 17 18 1
17 2 18 1
18 7 18 1
19 4 19 2
20 7 19 1
21 5 20 ar
22 6 20 2
@<TRIPOS>SUBSTRUCTURE
1	RES1	1	GROUP	1 ****	RES
