# created with PyMOL 2.5.2
@<TRIPOS>MOLECULE
BTK_6H0G_E3ligase
20 22 1                 
SMALL
USER_CHARGES
@<TRIPOS>ATOM
1	  N3	1.988	54.423	-85.614	N.pl3	1	RES1	0.000	
2	  N4	1.754	51.791	-82.106	N.2	1	RES1	0.000	
3	  N5	1.984	50.051	-78.884	N.pl3	1	RES1	0.000	
4	  O5	2.851	53.727	-82.860	O.2	1	RES1	0.000	
5	  O6	3.678	49.665	-77.421	O.3	1	RES1	0.000	
6	  O7	0.198	50.415	-80.255	O.2	1	RES1	0.000	
7	  O8	0.430	49.858	-82.234	O.2	1	RES1	0.000	
8	 C12	1.322	53.193	-85.452	C.2	1	RES1	0.000	
9	 C13	0.507	52.687	-86.447	C.2	1	RES1	0.000	
10	 C14	-0.202	51.458	-86.274	C.2	1	RES1	0.000	
11	 C15	-0.139	50.774	-85.066	C.2	1	RES1	0.000	
12	 C16	0.662	51.348	-84.052	C.2	1	RES1	0.000	
13	 C17	1.361	52.505	-84.245	C.2	1	RES1	0.000	
14	 C18	2.071	52.797	-83.001	C.2	1	RES1	0.000	
15	 C19	2.257	51.657	-80.740	C.3	1	RES1	0.000	
16	 C20	3.728	51.284	-80.667	C.3	1	RES1	0.000	
17	 C21	4.120	51.202	-79.193	C.3	1	RES1	0.000	
18	 C22	3.258	50.229	-78.417	C.3	1	RES1	0.000	
19	 C23	1.376	50.650	-79.961	C.2	1	RES1	0.000	
20	 C24	0.923	50.876	-82.678	C.2	1	RES1	0.000	
@<TRIPOS>BOND
1 1 8 1
2 8 9 ar
3 8 13 ar
4 9 10 ar
5 10 11 ar
6 11 12 ar
7 12 13 ar
8 12 20 ar
9 13 14 ar
10 2 14 ar
11 4 14 2
12 2 15 1
13 15 16 1
14 15 19 1
15 16 17 1
16 17 18 1
17 3 18 1
18 5 18 1
19 3 19 1
20 6 19 2
21 2 20 ar
22 7 20 2
@<TRIPOS>SUBSTRUCTURE
1	RES1	1	GROUP	1 ****	RES
