# created with PyMOL 2.5.2
@<TRIPOS>MOLECULE
BTK_6H0G_E3ligase
20 22 1                 
SMALL
USER_CHARGES
@<TRIPOS>ATOM
1	  O2	2.819	53.724	-82.829	O.2	1	RES1	0.000	
2	  N3	1.991	54.454	-85.601	N.pl3	1	RES1	0.000	
3	  O3	3.682	49.704	-77.393	O.2	1	RES1	0.000	
4	  N4	1.741	51.766	-82.096	N.2	1	RES1	0.000	
5	  O4	0.185	50.451	-80.184	O.2	1	RES1	0.000	
6	  N5	1.978	50.085	-78.865	N.pl3	1	RES1	0.000	
7	  O5	0.431	49.819	-82.260	O.2	1	RES1	0.000	
8	  C6	1.333	53.209	-85.429	C.2	1	RES1	0.000	
9	  C7	0.512	52.683	-86.460	C.2	1	RES1	0.000	
10	  C8	-0.200	51.480	-86.289	C.2	1	RES1	0.000	
11	  C9	-0.116	50.780	-85.092	C.2	1	RES1	0.000	
12	 C10	0.667	51.333	-84.081	C.2	1	RES1	0.000	
13	 C11	1.342	52.499	-84.244	C.2	1	RES1	0.000	
14	 C12	2.057	52.775	-83.002	C.2	1	RES1	0.000	
15	 C13	2.245	51.626	-80.759	C.3	1	RES1	0.000	
16	 C14	3.722	51.235	-80.670	C.3	1	RES1	0.000	
17	 C15	4.160	51.190	-79.214	C.3	1	RES1	0.000	
18	 C16	3.280	50.240	-78.430	C.2	1	RES1	0.000	
19	 C17	1.400	50.678	-79.941	C.2	1	RES1	0.000	
20	 C18	0.895	50.863	-82.727	C.2	1	RES1	0.000	
@<TRIPOS>BOND
1 2 8 1
2 8 9 ar
3 9 10 ar
4 10 11 ar
5 11 12 ar
6 12 13 ar
7 12 20 ar
8 8 13 ar
9 13 14 ar
10 1 14 2
11 4 14 ar
12 4 15 1
13 15 16 1
14 15 19 1
15 16 17 1
16 17 18 1
17 3 18 2
18 6 18 1
19 5 19 2
20 6 19 1
21 4 20 ar
22 7 20 2
@<TRIPOS>SUBSTRUCTURE
1	RES1	1	GROUP	1 ****	RES
