# created with PyMOL 2.5.2
@<TRIPOS>MOLECULE
BTK_6H0G_E3ligase
20 22 1                 
SMALL
USER_CHARGES
@<TRIPOS>ATOM
1	  O1	2.838	53.711	-82.869	O.2	1	RES1	0.000	
2	  N2	1.991	54.446	-85.618	N.pl3	1	RES1	0.000	
3	  O2	3.648	49.695	-77.377	O.3	1	RES1	0.000	
4	  N3	1.745	51.757	-82.126	N.2	1	RES1	0.000	
5	  O3	0.219	50.429	-80.224	O.2	1	RES1	0.000	
6	  N4	1.981	50.080	-78.851	N.pl3	1	RES1	0.000	
7	  O4	0.414	49.833	-82.251	O.2	1	RES1	0.000	
8	  C6	1.323	53.211	-85.443	C.2	1	RES1	0.000	
9	  C7	0.507	52.698	-86.453	C.2	1	RES1	0.000	
10	  C8	-0.215	51.487	-86.269	C.2	1	RES1	0.000	
11	  C9	-0.139	50.809	-85.071	C.2	1	RES1	0.000	
12	 C10	0.665	51.336	-84.068	C.2	1	RES1	0.000	
13	 C11	1.339	52.494	-84.269	C.2	1	RES1	0.000	
14	 C12	2.079	52.779	-83.015	C.2	1	RES1	0.000	
15	 C13	2.270	51.626	-80.735	C.3	1	RES1	0.000	
16	 C14	3.739	51.248	-80.647	C.3	1	RES1	0.000	
17	 C15	4.142	51.207	-79.201	C.3	1	RES1	0.000	
18	 C16	3.274	50.249	-78.400	C.3	1	RES1	0.000	
19	 C17	1.394	50.650	-79.977	C.2	1	RES1	0.000	
20	 C18	0.909	50.849	-82.702	C.2	1	RES1	0.000	
@<TRIPOS>BOND
1 1 14 2
2 2 8 1
3 8 9 ar
4 9 10 ar
5 10 11 ar
6 11 12 ar
7 12 13 ar
8 12 20 ar
9 8 13 ar
10 13 14 ar
11 4 14 ar
12 4 15 1
13 15 16 1
14 15 19 1
15 16 17 1
16 17 18 1
17 3 18 1
18 6 18 1
19 5 19 2
20 6 19 1
21 4 20 ar
22 7 20 2
@<TRIPOS>SUBSTRUCTURE
1	RES1	1	GROUP	1 ****	RES
