# created with PyMOL 2.5.2
@<TRIPOS>MOLECULE
BTK_6H0G_E3ligase
20 22 1                 
SMALL
USER_CHARGES
@<TRIPOS>ATOM
1	  O1	2.784	53.745	-82.816	O.2	1	RES1	0.000	
2	  N2	1.977	54.446	-85.592	N.pl3	1	RES1	0.000	
3	  O2	3.691	49.685	-77.405	O.2	1	RES1	0.000	
4	  N3	1.728	51.792	-82.100	N.2	1	RES1	0.000	
5	  O3	0.210	50.474	-80.222	O.2	1	RES1	0.000	
6	  N4	2.003	50.076	-78.869	N.pl3	1	RES1	0.000	
7	  O4	0.416	49.811	-82.259	O.2	1	RES1	0.000	
8	  C5	1.322	53.197	-85.425	C.2	1	RES1	0.000	
9	  C6	0.532	52.672	-86.466	C.2	1	RES1	0.000	
10	  C7	-0.174	51.489	-86.313	C.2	1	RES1	0.000	
11	  C8	-0.123	50.769	-85.105	C.2	1	RES1	0.000	
12	  C9	0.681	51.329	-84.064	C.2	1	RES1	0.000	
13	 C10	1.343	52.488	-84.250	C.2	1	RES1	0.000	
14	 C11	2.047	52.798	-82.959	C.2	1	RES1	0.000	
15	 C12	2.230	51.642	-80.734	C.3	1	RES1	0.000	
16	 C13	3.716	51.266	-80.672	C.3	1	RES1	0.000	
17	 C14	4.158	51.187	-79.223	C.3	1	RES1	0.000	
18	 C15	3.293	50.213	-78.431	C.2	1	RES1	0.000	
19	 C16	1.393	50.670	-79.952	C.2	1	RES1	0.000	
20	 C17	0.898	50.844	-82.709	C.2	1	RES1	0.000	
@<TRIPOS>BOND
1 1 14 2
2 2 8 1
3 8 9 ar
4 9 10 ar
5 10 11 ar
6 11 12 ar
7 8 13 ar
8 12 13 ar
9 13 14 ar
10 4 14 ar
11 4 15 1
12 15 16 1
13 15 19 1
14 16 17 1
15 17 18 1
16 3 18 2
17 6 18 1
18 5 19 2
19 6 19 1
20 4 20 ar
21 7 20 2
22 12 20 ar
@<TRIPOS>SUBSTRUCTURE
1	RES1	1	GROUP	1 ****	RES
