# created with PyMOL 2.5.2
@<TRIPOS>MOLECULE
BTK_7BQU_E3ligase
19 21 1                 
SMALL
USER_CHARGES
@<TRIPOS>ATOM
1	  N3	25.405	17.690	13.163	N.2	1	RES1	0.000	
2	  O3	27.389	17.196	12.006	O.2	1	RES1	0.000	
3	  N4	25.088	19.901	16.078	N.pl3	1	RES1	0.000	
4	  O4	26.383	20.312	17.876	O.2	1	RES1	0.000	
5	  O5	23.718	19.600	14.299	O.2	1	RES1	0.000	
6	  O6	23.075	17.697	13.624	O.2	1	RES1	0.000	
7	  C7	25.558	15.512	10.238	C.2	1	RES1	0.000	
8	  C8	24.497	14.837	9.658	C.2	1	RES1	0.000	
9	  C9	23.190	14.980	10.160	C.2	1	RES1	0.000	
10	 C10	22.932	15.789	11.277	C.2	1	RES1	0.000	
11	 C11	24.020	16.428	11.844	C.2	1	RES1	0.000	
12	 C12	25.296	16.299	11.354	C.2	1	RES1	0.000	
13	 C13	26.175	17.110	12.185	C.2	1	RES1	0.000	
14	 C14	25.920	18.638	14.146	C.3	1	RES1	0.000	
15	 C15	26.854	17.940	15.183	C.3	1	RES1	0.000	
16	 C16	27.393	19.019	16.118	C.3	1	RES1	0.000	
17	 C17	26.242	19.780	16.788	C.2	1	RES1	0.000	
18	 C18	24.798	19.395	14.843	C.2	1	RES1	0.000	
19	 C19	24.063	17.329	13.000	C.2	1	RES1	0.000	
@<TRIPOS>BOND
1 7 8 ar
2 8 9 ar
3 9 10 ar
4 10 11 ar
5 11 12 ar
6 11 19 ar
7 7 12 ar
8 12 13 ar
9 1 13 ar
10 2 13 2
11 1 14 1
12 14 15 1
13 14 18 1
14 15 16 1
15 16 17 1
16 3 17 1
17 4 17 2
18 3 18 1
19 5 18 2
20 1 19 ar
21 6 19 2
@<TRIPOS>SUBSTRUCTURE
1	RES1	1	GROUP	1 ****	RES
