# created with PyMOL 2.5.2
@<TRIPOS>MOLECULE
BTK_6H0G_E3ligase
20 22 1                 
SMALL
USER_CHARGES
@<TRIPOS>ATOM
1	  O4	2.804	53.773	-82.861	O.2	1	RES1	0.000	
2	  O5	3.661	49.616	-77.435	O.3	1	RES1	0.000	
3	  O6	0.210	50.419	-80.210	O.2	1	RES1	0.000	
4	  O7	0.433	49.837	-82.213	O.2	1	RES1	0.000	
5	  N9	1.953	54.438	-85.628	N.pl3	1	RES1	0.000	
6	 N10	1.740	51.828	-82.095	N.2	1	RES1	0.000	
7	 N11	1.987	50.043	-78.890	N.pl3	1	RES1	0.000	
8	 C33	1.324	53.199	-85.446	C.2	1	RES1	0.000	
9	 C34	0.531	52.641	-86.467	C.2	1	RES1	0.000	
10	 C35	-0.157	51.457	-86.282	C.2	1	RES1	0.000	
11	 C36	-0.131	50.769	-85.043	C.2	1	RES1	0.000	
12	 C37	0.668	51.330	-84.052	C.2	1	RES1	0.000	
13	 C38	1.352	52.521	-84.239	C.2	1	RES1	0.000	
14	 C39	2.073	52.827	-83.001	C.2	1	RES1	0.000	
15	 C40	2.231	51.683	-80.725	C.3	1	RES1	0.000	
16	 C41	3.711	51.278	-80.654	C.3	1	RES1	0.000	
17	 C42	4.150	51.189	-79.216	C.3	1	RES1	0.000	
18	 C43	3.268	50.207	-78.437	C.3	1	RES1	0.000	
19	 C44	1.391	50.657	-79.988	C.2	1	RES1	0.000	
20	 C45	0.924	50.882	-82.684	C.2	1	RES1	0.000	
@<TRIPOS>BOND
1 6 14 ar
2 6 15 1
3 6 20 ar
4 7 18 1
5 7 19 1
6 5 8 1
7 8 9 ar
8 8 13 ar
9 9 10 ar
10 10 11 ar
11 11 12 ar
12 12 13 ar
13 12 20 ar
14 13 14 ar
15 1 14 2
16 15 16 1
17 15 19 1
18 16 17 1
19 17 18 1
20 2 18 1
21 3 19 2
22 4 20 2
@<TRIPOS>SUBSTRUCTURE
1	RES1	1	GROUP	1 ****	RES
