# created with PyMOL 2.5.2
@<TRIPOS>MOLECULE
BTK_6H0G_E3ligase
20 22 1                 
SMALL
USER_CHARGES
@<TRIPOS>ATOM
1	  O2	2.842	53.734	-82.869	O.2	1	RES1	0.000	
2	  N3	1.973	54.426	-85.631	N.pl3	1	RES1	0.000	
3	  O3	3.683	49.678	-77.385	O.3	1	RES1	0.000	
4	  N4	1.738	51.792	-82.131	N.2	1	RES1	0.000	
5	  O4	0.226	50.378	-80.245	O.2	1	RES1	0.000	
6	  N5	1.990	50.039	-78.882	N.pl3	1	RES1	0.000	
7	  O5	0.435	49.872	-82.229	O.2	1	RES1	0.000	
8	  C7	1.352	53.201	-85.460	C.2	1	RES1	0.000	
9	  C8	0.510	52.678	-86.457	C.2	1	RES1	0.000	
10	  C9	-0.200	51.475	-86.259	C.2	1	RES1	0.000	
11	 C10	-0.150	50.777	-85.059	C.2	1	RES1	0.000	
12	 C11	0.657	51.355	-84.065	C.2	1	RES1	0.000	
13	 C12	1.361	52.498	-84.264	C.2	1	RES1	0.000	
14	 C13	2.081	52.803	-83.001	C.2	1	RES1	0.000	
15	 C14	2.249	51.661	-80.736	C.3	1	RES1	0.000	
16	 C15	3.703	51.283	-80.638	C.3	1	RES1	0.000	
17	 C16	4.125	51.201	-79.178	C.3	1	RES1	0.000	
18	 C17	3.277	50.242	-78.410	C.3	1	RES1	0.000	
19	 C18	1.385	50.632	-79.971	C.2	1	RES1	0.000	
20	 C19	0.891	50.869	-82.695	C.2	1	RES1	0.000	
@<TRIPOS>BOND
1 2 8 1
2 8 9 ar
3 9 10 ar
4 10 11 ar
5 11 12 ar
6 12 13 ar
7 12 20 ar
8 8 13 ar
9 13 14 ar
10 1 14 2
11 4 14 ar
12 4 15 1
13 15 16 1
14 15 19 1
15 16 17 1
16 17 18 1
17 3 18 1
18 6 18 1
19 5 19 2
20 6 19 1
21 4 20 ar
22 7 20 2
@<TRIPOS>SUBSTRUCTURE
1	RES1	1	GROUP	1 ****	RES
