# created with PyMOL 2.5.2
@<TRIPOS>MOLECULE
BTK_6H0G_E3ligase
20 22 1                 
SMALL
USER_CHARGES
@<TRIPOS>ATOM
1	  O5	2.861	53.717	-82.877	O.2	1	RES1	0.000	
2	  O6	3.657	49.684	-77.393	O.3	1	RES1	0.000	
3	  O7	0.237	50.386	-80.283	O.2	1	RES1	0.000	
4	  O8	0.422	49.844	-82.218	O.2	1	RES1	0.000	
5	  N9	1.998	54.434	-85.623	N.pl3	1	RES1	0.000	
6	 N10	1.754	51.781	-82.117	N.2	1	RES1	0.000	
7	 N11	1.998	50.055	-78.890	N.pl3	1	RES1	0.000	
8	 C34	1.329	53.180	-85.451	C.2	1	RES1	0.000	
9	 C35	0.492	52.678	-86.457	C.2	1	RES1	0.000	
10	 C36	-0.221	51.492	-86.275	C.2	1	RES1	0.000	
11	 C37	-0.154	50.788	-85.050	C.2	1	RES1	0.000	
12	 C38	0.657	51.350	-84.055	C.2	1	RES1	0.000	
13	 C39	1.357	52.519	-84.253	C.2	1	RES1	0.000	
14	 C40	2.079	52.793	-82.994	C.2	1	RES1	0.000	
15	 C41	2.263	51.651	-80.736	C.3	1	RES1	0.000	
16	 C42	3.728	51.285	-80.638	C.3	1	RES1	0.000	
17	 C43	4.130	51.211	-79.161	C.3	1	RES1	0.000	
18	 C44	3.254	50.235	-78.400	C.3	1	RES1	0.000	
19	 C45	1.381	50.632	-79.990	C.2	1	RES1	0.000	
20	 C46	0.904	50.878	-82.704	C.2	1	RES1	0.000	
@<TRIPOS>BOND
1 6 14 ar
2 6 15 1
3 6 20 ar
4 7 18 1
5 7 19 1
6 5 8 1
7 8 9 ar
8 8 13 ar
9 9 10 ar
10 10 11 ar
11 11 12 ar
12 12 13 ar
13 12 20 ar
14 13 14 ar
15 1 14 2
16 15 16 1
17 15 19 1
18 16 17 1
19 17 18 1
20 2 18 1
21 3 19 2
22 4 20 2
@<TRIPOS>SUBSTRUCTURE
1	RES1	1	GROUP	1 ****	RES
