# created with PyMOL 2.5.2
@<TRIPOS>MOLECULE
BTK_6H0G_E3ligase
20 22 1                 
SMALL
USER_CHARGES
@<TRIPOS>ATOM
1	  O5	2.763	53.750	-82.820	O.2	1	RES1	0.000	
2	  O6	3.729	49.699	-77.439	O.2	1	RES1	0.000	
3	  O7	0.202	50.421	-80.159	O.2	1	RES1	0.000	
4	  O8	0.427	49.832	-82.252	O.2	1	RES1	0.000	
5	  N9	1.981	54.458	-85.603	N.pl3	1	RES1	0.000	
6	 N10	1.690	51.784	-82.094	N.2	1	RES1	0.000	
7	 N11	2.019	50.064	-78.836	N.pl3	1	RES1	0.000	
8	 C34	1.330	53.204	-85.461	C.2	1	RES1	0.000	
9	 C35	0.566	52.668	-86.475	C.2	1	RES1	0.000	
10	 C36	-0.150	51.457	-86.319	C.2	1	RES1	0.000	
11	 C37	-0.081	50.783	-85.083	C.2	1	RES1	0.000	
12	 C38	0.659	51.320	-84.074	C.2	1	RES1	0.000	
13	 C39	1.347	52.512	-84.240	C.2	1	RES1	0.000	
14	 C40	2.030	52.814	-82.977	C.2	1	RES1	0.000	
15	 C41	2.202	51.638	-80.719	C.3	1	RES1	0.000	
16	 C42	3.696	51.247	-80.682	C.3	1	RES1	0.000	
17	 C43	4.143	51.183	-79.244	C.3	1	RES1	0.000	
18	 C44	3.294	50.234	-78.435	C.2	1	RES1	0.000	
19	 C45	1.390	50.656	-79.935	C.2	1	RES1	0.000	
20	 C46	0.887	50.870	-82.719	C.2	1	RES1	0.000	
@<TRIPOS>BOND
1 6 14 ar
2 6 15 1
3 6 20 ar
4 7 18 1
5 7 19 1
6 5 8 1
7 8 9 ar
8 8 13 ar
9 9 10 ar
10 10 11 ar
11 11 12 ar
12 12 13 ar
13 12 20 ar
14 13 14 ar
15 1 14 2
16 15 16 1
17 15 19 1
18 16 17 1
19 17 18 1
20 2 18 2
21 3 19 2
22 4 20 2
@<TRIPOS>SUBSTRUCTURE
1	RES1	1	GROUP	1 ****	RES
