# created with PyMOL 2.5.2
@<TRIPOS>MOLECULE
BTK_6H0G_E3ligase
20 22 1                 
SMALL
USER_CHARGES
@<TRIPOS>ATOM
1	  O2	2.774	53.769	-82.823	O.2	1	RES1	0.000	
2	  N3	1.964	54.460	-85.597	N.pl3	1	RES1	0.000	
3	  O3	3.725	49.683	-77.434	O.2	1	RES1	0.000	
4	  N4	1.688	51.791	-82.101	N.2	1	RES1	0.000	
5	  O4	0.192	50.434	-80.151	O.2	1	RES1	0.000	
6	  N5	2.014	50.075	-78.846	N.pl3	1	RES1	0.000	
7	  O5	0.416	49.821	-82.254	O.2	1	RES1	0.000	
8	  C7	1.336	53.212	-85.449	C.2	1	RES1	0.000	
9	  C8	0.549	52.664	-86.468	C.2	1	RES1	0.000	
10	  C9	-0.152	51.438	-86.318	C.2	1	RES1	0.000	
11	 C10	-0.077	50.784	-85.086	C.2	1	RES1	0.000	
12	 C11	0.673	51.319	-84.091	C.2	1	RES1	0.000	
13	 C12	1.355	52.514	-84.224	C.2	1	RES1	0.000	
14	 C13	2.038	52.817	-82.982	C.2	1	RES1	0.000	
15	 C14	2.200	51.641	-80.739	C.3	1	RES1	0.000	
16	 C15	3.708	51.229	-80.685	C.3	1	RES1	0.000	
17	 C16	4.165	51.174	-79.239	C.3	1	RES1	0.000	
18	 C17	3.310	50.237	-78.428	C.2	1	RES1	0.000	
19	 C18	1.351	50.668	-79.940	C.2	1	RES1	0.000	
20	 C19	0.894	50.862	-82.708	C.2	1	RES1	0.000	
@<TRIPOS>BOND
1 2 8 1
2 8 9 ar
3 9 10 ar
4 10 11 ar
5 11 12 ar
6 12 13 ar
7 12 20 ar
8 8 13 ar
9 13 14 ar
10 1 14 2
11 4 14 ar
12 4 15 1
13 15 16 1
14 15 19 1
15 16 17 1
16 17 18 1
17 3 18 2
18 6 18 1
19 5 19 2
20 6 19 1
21 4 20 ar
22 7 20 2
@<TRIPOS>SUBSTRUCTURE
1	RES1	1	GROUP	1 ****	RES
