# created with PyMOL 2.5.2
@<TRIPOS>MOLECULE
BRD4_6H0G_E3ligase
20 22 1                 
SMALL
USER_CHARGES
@<TRIPOS>ATOM
1	  O2	2.790	53.756	-82.816	O.2	1	RES1	0.000	
2	  O3	3.707	49.689	-77.401	O.2	1	RES1	0.000	
3	  N4	1.961	54.455	-85.569	N.pl3	1	RES1	0.000	
4	  O4	0.189	50.493	-80.146	O.2	1	RES1	0.000	
5	  N5	1.706	51.782	-82.109	N.2	1	RES1	0.000	
6	  O5	0.463	49.790	-82.293	O.2	1	RES1	0.000	
7	  N6	1.966	50.090	-78.862	N.pl3	1	RES1	0.000	
8	 C18	1.340	53.211	-85.450	C.2	1	RES1	0.000	
9	 C19	0.520	52.677	-86.462	C.2	1	RES1	0.000	
10	 C20	-0.167	51.456	-86.308	C.2	1	RES1	0.000	
11	 C21	-0.107	50.771	-85.086	C.2	1	RES1	0.000	
12	 C22	0.662	51.318	-84.060	C.2	1	RES1	0.000	
13	 C23	1.371	52.496	-84.232	C.2	1	RES1	0.000	
14	 C24	2.058	52.805	-82.991	C.2	1	RES1	0.000	
15	 C25	2.234	51.632	-80.738	C.3	1	RES1	0.000	
16	 C26	3.690	51.225	-80.714	C.3	1	RES1	0.000	
17	 C27	4.179	51.149	-79.265	C.3	1	RES1	0.000	
18	 C28	3.298	50.232	-78.430	C.2	1	RES1	0.000	
19	 C29	1.355	50.706	-79.908	C.2	1	RES1	0.000	
20	 C30	0.911	50.859	-82.727	C.2	1	RES1	0.000	
@<TRIPOS>BOND
1 1 14 2
2 3 8 1
3 8 9 ar
4 8 13 ar
5 9 10 ar
6 10 11 ar
7 11 12 ar
8 12 13 ar
9 12 20 ar
10 13 14 ar
11 5 14 ar
12 5 15 1
13 15 16 1
14 15 19 1
15 16 17 1
16 17 18 1
17 2 18 2
18 7 18 1
19 4 19 2
20 7 19 1
21 5 20 ar
22 6 20 2
@<TRIPOS>SUBSTRUCTURE
1	RES1	1	GROUP	1 ****	RES
