# created with PyMOL 2.5.2
@<TRIPOS>MOLECULE
BTK_6H0G_E3ligase
20 22 1                 
SMALL
USER_CHARGES
@<TRIPOS>ATOM
1	  O2	2.813	53.750	-82.865	O.2	1	RES1	0.000	
2	  N3	1.965	54.439	-85.601	N.pl3	1	RES1	0.000	
3	  O3	3.671	49.666	-77.406	O.3	1	RES1	0.000	
4	  N4	1.746	51.798	-82.123	N.2	1	RES1	0.000	
5	  O4	0.222	50.444	-80.232	O.2	1	RES1	0.000	
6	  N5	1.976	50.051	-78.883	N.pl3	1	RES1	0.000	
7	  O5	0.431	49.850	-82.242	O.2	1	RES1	0.000	
8	  C7	1.328	53.215	-85.481	C.2	1	RES1	0.000	
9	  C8	0.501	52.667	-86.470	C.2	1	RES1	0.000	
10	  C9	-0.196	51.477	-86.271	C.2	1	RES1	0.000	
11	 C10	-0.117	50.780	-85.063	C.2	1	RES1	0.000	
12	 C11	0.657	51.331	-84.054	C.2	1	RES1	0.000	
13	 C12	1.352	52.490	-84.234	C.2	1	RES1	0.000	
14	 C13	2.079	52.800	-82.997	C.2	1	RES1	0.000	
15	 C14	2.257	51.654	-80.726	C.3	1	RES1	0.000	
16	 C15	3.709	51.271	-80.649	C.3	1	RES1	0.000	
17	 C16	4.143	51.173	-79.183	C.3	1	RES1	0.000	
18	 C17	3.279	50.217	-78.418	C.3	1	RES1	0.000	
19	 C18	1.387	50.662	-79.978	C.2	1	RES1	0.000	
20	 C19	0.919	50.858	-82.689	C.2	1	RES1	0.000	
@<TRIPOS>BOND
1 2 8 1
2 8 9 ar
3 9 10 ar
4 10 11 ar
5 11 12 ar
6 12 13 ar
7 12 20 ar
8 8 13 ar
9 13 14 ar
10 1 14 2
11 4 14 ar
12 4 15 1
13 15 16 1
14 15 19 1
15 16 17 1
16 17 18 1
17 3 18 1
18 6 18 1
19 5 19 2
20 6 19 1
21 4 20 ar
22 7 20 2
@<TRIPOS>SUBSTRUCTURE
1	RES1	1	GROUP	1 ****	RES
