# created with PyMOL 2.5.2
@<TRIPOS>MOLECULE
BTK_7BQU_E3ligase
19 21 1                 
SMALL
USER_CHARGES
@<TRIPOS>ATOM
1	  O5	23.132	17.686	13.673	O.2	1	RES1	0.000	
2	  O6	26.325	20.293	17.915	O.2	1	RES1	0.000	
3	  O7	23.757	19.631	14.208	O.2	1	RES1	0.000	
4	  O8	27.372	17.237	11.927	O.2	1	RES1	0.000	
5	 N10	25.431	17.701	13.139	N.2	1	RES1	0.000	
6	 N11	25.053	19.898	16.066	N.pl3	1	RES1	0.000	
7	 C34	24.458	14.839	9.653	C.2	1	RES1	0.000	
8	 C35	23.185	14.975	10.196	C.2	1	RES1	0.000	
9	 C36	22.919	15.796	11.301	C.2	1	RES1	0.000	
10	 C37	24.033	16.439	11.875	C.2	1	RES1	0.000	
11	 C38	24.095	17.355	13.009	C.2	1	RES1	0.000	
12	 C39	25.985	18.635	14.168	C.3	1	RES1	0.000	
13	 C40	26.833	17.938	15.220	C.3	1	RES1	0.000	
14	 C41	27.347	18.985	16.181	C.3	1	RES1	0.000	
15	 C42	26.224	19.746	16.816	C.2	1	RES1	0.000	
16	 C43	24.817	19.388	14.791	C.2	1	RES1	0.000	
17	 C44	26.211	17.123	12.157	C.2	1	RES1	0.000	
18	 C45	25.280	16.293	11.337	C.2	1	RES1	0.000	
19	 C46	25.537	15.497	10.206	C.2	1	RES1	0.000	
@<TRIPOS>BOND
1 5 11 ar
2 5 12 1
3 5 17 ar
4 6 15 1
5 6 16 1
6 7 8 ar
7 7 19 ar
8 8 9 ar
9 9 10 ar
10 10 11 ar
11 10 18 ar
12 1 11 2
13 12 13 1
14 12 16 1
15 13 14 1
16 14 15 1
17 2 15 2
18 3 16 2
19 4 17 2
20 17 18 ar
21 18 19 ar
@<TRIPOS>SUBSTRUCTURE
1	RES1	1	GROUP	1 ****	RES
