# created with PyMOL 2.5.2
@<TRIPOS>MOLECULE
BTK_7BQU_E3ligase
19 21 1                 
SMALL
USER_CHARGES
@<TRIPOS>ATOM
1	  O5	27.395	17.183	11.966	O.2	1	RES1	0.000	
2	  O6	26.343	20.323	17.898	O.2	1	RES1	0.000	
3	  O7	23.740	19.593	14.268	O.2	1	RES1	0.000	
4	  O8	23.121	17.703	13.643	O.2	1	RES1	0.000	
5	 N10	25.436	17.695	13.164	N.2	1	RES1	0.000	
6	 N11	25.072	19.885	16.054	N.pl3	1	RES1	0.000	
7	 C34	23.184	14.985	10.172	C.2	1	RES1	0.000	
8	 C35	24.456	14.855	9.655	C.2	1	RES1	0.000	
9	 C36	25.547	15.516	10.223	C.2	1	RES1	0.000	
10	 C37	25.276	16.282	11.360	C.2	1	RES1	0.000	
11	 C38	26.200	17.108	12.158	C.2	1	RES1	0.000	
12	 C39	25.943	18.612	14.162	C.3	1	RES1	0.000	
13	 C40	26.846	17.953	15.191	C.3	1	RES1	0.000	
14	 C41	27.359	19.026	16.162	C.3	1	RES1	0.000	
15	 C42	26.237	19.778	16.805	C.2	1	RES1	0.000	
16	 C43	24.796	19.364	14.812	C.2	1	RES1	0.000	
17	 C44	24.086	17.334	13.005	C.2	1	RES1	0.000	
18	 C45	24.019	16.446	11.855	C.2	1	RES1	0.000	
19	 C46	22.940	15.813	11.287	C.2	1	RES1	0.000	
@<TRIPOS>BOND
1 5 11 ar
2 5 12 1
3 5 17 ar
4 6 15 1
5 6 16 1
6 7 8 ar
7 7 19 ar
8 8 9 ar
9 9 10 ar
10 10 11 ar
11 10 18 ar
12 1 11 2
13 12 13 1
14 12 16 1
15 13 14 1
16 14 15 1
17 2 15 2
18 3 16 2
19 4 17 2
20 17 18 ar
21 18 19 ar
@<TRIPOS>SUBSTRUCTURE
1	RES1	1	GROUP	1 ****	RES
