# created with PyMOL 2.5.2
@<TRIPOS>MOLECULE
BTK_7BQU_E3ligase
19 21 1                 
SMALL
USER_CHARGES
@<TRIPOS>ATOM
1	  O3	23.129	17.629	13.678	O.2	1	RES1	0.000	
2	  N4	25.419	17.669	13.177	N.2	1	RES1	0.000	
3	  O4	26.328	20.324	17.885	O.2	1	RES1	0.000	
4	  N5	25.103	19.952	16.033	N.pl3	1	RES1	0.000	
5	  O5	23.813	19.697	14.179	O.2	1	RES1	0.000	
6	  O6	27.394	17.219	11.949	O.2	1	RES1	0.000	
7	  C8	24.446	14.878	9.643	C.2	1	RES1	0.000	
8	  C9	23.155	15.003	10.156	C.2	1	RES1	0.000	
9	 C10	22.936	15.777	11.302	C.2	1	RES1	0.000	
10	 C11	24.031	16.413	11.886	C.2	1	RES1	0.000	
11	 C12	24.087	17.290	13.020	C.2	1	RES1	0.000	
12	 C13	25.945	18.602	14.181	C.3	1	RES1	0.000	
13	 C14	26.803	17.889	15.250	C.3	1	RES1	0.000	
14	 C15	27.336	18.955	16.209	C.3	1	RES1	0.000	
15	 C16	26.223	19.791	16.826	C.2	1	RES1	0.000	
16	 C17	24.817	19.419	14.764	C.2	1	RES1	0.000	
17	 C18	26.193	17.101	12.156	C.2	1	RES1	0.000	
18	 C19	25.303	16.310	11.331	C.2	1	RES1	0.000	
19	 C20	25.533	15.535	10.215	C.2	1	RES1	0.000	
@<TRIPOS>BOND
1 7 8 ar
2 8 9 ar
3 9 10 ar
4 10 11 ar
5 10 18 ar
6 1 11 2
7 2 11 ar
8 2 12 1
9 12 13 1
10 12 16 1
11 13 14 1
12 14 15 1
13 3 15 2
14 4 15 1
15 4 16 1
16 5 16 2
17 2 17 ar
18 6 17 2
19 17 18 ar
20 18 19 ar
21 7 19 ar
@<TRIPOS>SUBSTRUCTURE
1	RES1	1	GROUP	1 ****	RES
