# created with PyMOL 2.5.2
@<TRIPOS>MOLECULE
FLT3_6H0G_E3ligase
20 22 1                 
SMALL
USER_CHARGES
@<TRIPOS>ATOM
1	  O4	2.815	53.747	-82.862	O.2	1	RES1	0.000	
2	  O5	3.698	49.686	-77.397	O.2	1	RES1	0.000	
3	  O6	0.199	50.420	-80.214	O.2	1	RES1	0.000	
4	  O7	0.439	49.847	-82.241	O.2	1	RES1	0.000	
5	 N10	1.986	54.438	-85.619	N.pl3	1	RES1	0.000	
6	 N11	1.722	51.789	-82.107	N.2	1	RES1	0.000	
7	 N12	1.989	50.050	-78.870	N.pl3	1	RES1	0.000	
8	 C35	1.325	53.207	-85.454	C.2	1	RES1	0.000	
9	 C36	0.523	52.653	-86.452	C.2	1	RES1	0.000	
10	 C37	-0.183	51.482	-86.273	C.2	1	RES1	0.000	
11	 C38	-0.128	50.779	-85.080	C.2	1	RES1	0.000	
12	 C39	0.659	51.346	-84.064	C.2	1	RES1	0.000	
13	 C40	1.342	52.498	-84.252	C.2	1	RES1	0.000	
14	 C41	2.066	52.812	-83.010	C.2	1	RES1	0.000	
15	 C42	2.232	51.654	-80.737	C.3	1	RES1	0.000	
16	 C43	3.729	51.252	-80.658	C.3	1	RES1	0.000	
17	 C44	4.149	51.189	-79.195	C.3	1	RES1	0.000	
18	 C45	3.289	50.227	-78.411	C.2	1	RES1	0.000	
19	 C46	1.371	50.649	-79.960	C.2	1	RES1	0.000	
20	 C47	0.904	50.867	-82.711	C.2	1	RES1	0.000	
@<TRIPOS>BOND
1 1 14 2
2 5 8 1
3 6 14 ar
4 6 15 1
5 6 20 ar
6 7 18 1
7 7 19 1
8 8 9 ar
9 8 13 ar
10 9 10 ar
11 10 11 ar
12 11 12 ar
13 12 13 ar
14 12 20 ar
15 13 14 ar
16 15 16 1
17 15 19 1
18 16 17 1
19 17 18 1
20 2 18 2
21 3 19 2
22 4 20 2
@<TRIPOS>SUBSTRUCTURE
1	RES1	1	GROUP	1 ****	RES
