# created with PyMOL 2.5.2
@<TRIPOS>MOLECULE
FLT3_6H0G_E3ligase
20 22 1                 
SMALL
USER_CHARGES
@<TRIPOS>ATOM
1	  O4	2.827	53.755	-82.864	O.2	1	RES1	0.000	
2	  O5	3.674	49.661	-77.411	O.3	1	RES1	0.000	
3	  O6	0.202	50.441	-80.222	O.2	1	RES1	0.000	
4	  O7	0.452	49.833	-82.228	O.2	1	RES1	0.000	
5	 N11	1.970	54.442	-85.614	N.pl3	1	RES1	0.000	
6	 N12	1.741	51.801	-82.113	N.2	1	RES1	0.000	
7	 N13	1.981	50.062	-78.882	N.pl3	1	RES1	0.000	
8	 C38	1.327	53.200	-85.461	C.2	1	RES1	0.000	
9	 C39	0.521	52.670	-86.451	C.2	1	RES1	0.000	
10	 C40	-0.199	51.468	-86.269	C.2	1	RES1	0.000	
11	 C41	-0.133	50.788	-85.074	C.2	1	RES1	0.000	
12	 C42	0.672	51.323	-84.068	C.2	1	RES1	0.000	
13	 C43	1.344	52.502	-84.236	C.2	1	RES1	0.000	
14	 C44	2.080	52.802	-82.998	C.2	1	RES1	0.000	
15	 C45	2.244	51.663	-80.750	C.3	1	RES1	0.000	
16	 C46	3.715	51.264	-80.662	C.3	1	RES1	0.000	
17	 C47	4.153	51.179	-79.204	C.3	1	RES1	0.000	
18	 C48	3.269	50.222	-78.410	C.3	1	RES1	0.000	
19	 C49	1.373	50.645	-79.969	C.2	1	RES1	0.000	
20	 C50	0.911	50.871	-82.679	C.2	1	RES1	0.000	
@<TRIPOS>BOND
1 1 14 2
2 5 8 1
3 6 14 ar
4 6 15 1
5 6 20 ar
6 7 18 1
7 7 19 1
8 8 9 ar
9 8 13 ar
10 9 10 ar
11 10 11 ar
12 11 12 ar
13 12 13 ar
14 12 20 ar
15 13 14 ar
16 15 16 1
17 15 19 1
18 16 17 1
19 17 18 1
20 2 18 1
21 3 19 2
22 4 20 2
@<TRIPOS>SUBSTRUCTURE
1	RES1	1	GROUP	1 ****	RES
