# created with PyMOL 2.5.2
@<TRIPOS>MOLECULE
CDK8_6H0G_E3ligase
20 22 1                 
SMALL
USER_CHARGES
@<TRIPOS>ATOM
1	  C1	3.412	50.786	-78.383	C.2	1	RES1	0.000	
2	  N1	1.646	51.006	-82.278	N.2	1	RES1	0.000	
3	  O1	3.896	50.866	-77.270	O.2	1	RES1	0.000	
4	  C2	4.019	49.944	-79.494	C.3	1	RES1	0.000	
5	  N2	1.660	54.693	-84.662	N.pl3	1	RES1	0.000	
6	  O2	0.657	49.065	-83.218	O.2	1	RES1	0.000	
7	  C3	3.644	50.487	-80.876	C.3	1	RES1	0.000	
8	  C4	2.120	50.529	-80.990	C.3	1	RES1	0.000	
9	  O4	2.416	53.225	-82.221	O.2	1	RES1	0.000	
10	  C5	0.951	50.237	-83.239	C.2	1	RES1	0.000	
11	  O5	0.445	51.946	-79.977	O.2	1	RES1	0.000	
12	  C6	0.716	51.112	-84.363	C.2	1	RES1	0.000	
13	  C7	0.059	50.849	-85.568	C.2	1	RES1	0.000	
14	  C8	-0.026	51.903	-86.484	C.2	1	RES1	0.000	
15	  N8	2.204	51.399	-78.684	N.pl3	1	RES1	0.000	
16	  C9	0.510	53.153	-86.176	C.2	1	RES1	0.000	
17	 C10	1.173	53.411	-84.991	C.2	1	RES1	0.000	
18	 C37	1.252	52.344	-84.069	C.2	1	RES1	0.000	
19	 C38	1.842	52.251	-82.753	C.2	1	RES1	0.000	
20	 C39	1.527	51.389	-79.870	C.2	1	RES1	0.000	
@<TRIPOS>BOND
1 1 4 1
2 1 15 1
3 2 8 1
4 2 10 ar
5 2 19 ar
6 1 3 2
7 4 7 1
8 6 10 2
9 7 8 1
10 10 12 ar
11 12 13 ar
12 13 14 ar
13 14 16 ar
14 5 17 1
15 16 17 ar
16 17 18 ar
17 12 18 ar
18 18 19 ar
19 9 19 2
20 8 20 1
21 11 20 2
22 15 20 1
@<TRIPOS>SUBSTRUCTURE
1	RES1	1	GROUP	1 ****	RES
