# created with PyMOL 2.5.2
@<TRIPOS>MOLECULE
RIPK2_7BQU_E3ligase
19 21 1                 
SMALL
USER_CHARGES
@<TRIPOS>ATOM
1	  N5	25.418	17.697	13.137	N.2	1	RES1	0.000	
2	  N6	25.071	19.887	16.056	N.pl3	1	RES1	0.000	
3	  O7	27.390	17.206	11.950	O.2	1	RES1	0.000	
4	  O8	26.330	20.287	17.915	O.2	1	RES1	0.000	
5	  O9	23.723	19.598	14.274	O.2	1	RES1	0.000	
6	 O10	23.118	17.718	13.637	O.2	1	RES1	0.000	
7	 C25	25.553	15.488	10.234	C.2	1	RES1	0.000	
8	 C26	24.470	14.841	9.665	C.2	1	RES1	0.000	
9	 C27	23.166	14.973	10.190	C.2	1	RES1	0.000	
10	 C28	22.929	15.796	11.300	C.2	1	RES1	0.000	
11	 C29	24.031	16.435	11.851	C.2	1	RES1	0.000	
12	 C30	25.296	16.304	11.348	C.2	1	RES1	0.000	
13	 C31	26.186	17.111	12.162	C.2	1	RES1	0.000	
14	 C32	25.963	18.632	14.148	C.3	1	RES1	0.000	
15	 C33	26.854	17.970	15.183	C.3	1	RES1	0.000	
16	 C34	27.388	19.005	16.152	C.3	1	RES1	0.000	
17	 C35	26.220	19.761	16.812	C.2	1	RES1	0.000	
18	 C36	24.793	19.390	14.829	C.2	1	RES1	0.000	
19	 C37	24.095	17.355	12.996	C.2	1	RES1	0.000	
@<TRIPOS>BOND
1 6 19 2
2 7 8 ar
3 7 12 ar
4 8 9 ar
5 9 10 ar
6 10 11 ar
7 11 12 ar
8 11 19 ar
9 12 13 ar
10 1 13 ar
11 3 13 2
12 1 14 1
13 14 15 1
14 14 18 1
15 15 16 1
16 16 17 1
17 2 17 1
18 4 17 2
19 2 18 1
20 5 18 2
21 1 19 ar
@<TRIPOS>SUBSTRUCTURE
1	RES1	1	GROUP	1 ****	RES
