# created with PyMOL 2.5.2
@<TRIPOS>MOLECULE
EGFR_6H0G_E3ligase
20 22 1                 
SMALL
USER_CHARGES
@<TRIPOS>ATOM
1	  O4	2.817	53.756	-82.858	O.2	1	RES1	0.000	
2	  O5	3.684	49.648	-77.415	O.3	1	RES1	0.000	
3	  O6	0.202	50.438	-80.211	O.2	1	RES1	0.000	
4	  N7	1.978	54.456	-85.624	N.pl3	1	RES1	0.000	
5	  O7	0.436	49.856	-82.248	O.2	1	RES1	0.000	
6	  N8	1.732	51.797	-82.098	N.2	1	RES1	0.000	
7	  N9	1.992	50.060	-78.859	N.pl3	1	RES1	0.000	
8	 C25	1.335	53.209	-85.466	C.2	1	RES1	0.000	
9	 C26	0.520	52.649	-86.460	C.2	1	RES1	0.000	
10	 C27	-0.202	51.466	-86.267	C.2	1	RES1	0.000	
11	 C28	-0.115	50.790	-85.066	C.2	1	RES1	0.000	
12	 C29	0.673	51.334	-84.056	C.2	1	RES1	0.000	
13	 C30	1.346	52.497	-84.259	C.2	1	RES1	0.000	
14	 C31	2.056	52.788	-82.991	C.2	1	RES1	0.000	
15	 C32	2.235	51.659	-80.737	C.3	1	RES1	0.000	
16	 C33	3.725	51.259	-80.667	C.3	1	RES1	0.000	
17	 C34	4.150	51.203	-79.203	C.3	1	RES1	0.000	
18	 C35	3.270	50.225	-78.423	C.3	1	RES1	0.000	
19	 C36	1.368	50.648	-79.961	C.2	1	RES1	0.000	
20	 C37	0.924	50.855	-82.698	C.2	1	RES1	0.000	
@<TRIPOS>BOND
1 4 8 1
2 8 9 ar
3 8 13 ar
4 9 10 ar
5 10 11 ar
6 11 12 ar
7 12 13 ar
8 12 20 ar
9 13 14 ar
10 1 14 2
11 6 14 ar
12 6 15 1
13 15 16 1
14 15 19 1
15 16 17 1
16 17 18 1
17 2 18 1
18 7 18 1
19 3 19 2
20 7 19 1
21 5 20 2
22 6 20 ar
@<TRIPOS>SUBSTRUCTURE
1	RES1	1	GROUP	1 ****	RES
