# created with PyMOL 2.5.2
@<TRIPOS>MOLECULE
EGFR_6H0G_E3ligase
20 22 1                 
SMALL
USER_CHARGES
@<TRIPOS>ATOM
1	  O4	2.780	53.755	-82.799	O.2	1	RES1	0.000	
2	  O5	3.719	49.686	-77.411	O.2	1	RES1	0.000	
3	  O6	0.176	50.501	-80.139	O.2	1	RES1	0.000	
4	  N7	1.961	54.456	-85.584	N.pl3	1	RES1	0.000	
5	  O7	0.442	49.794	-82.285	O.2	1	RES1	0.000	
6	  N8	1.710	51.781	-82.101	N.2	1	RES1	0.000	
7	  N9	1.995	50.088	-78.841	N.pl3	1	RES1	0.000	
8	 C25	1.332	53.218	-85.415	C.2	1	RES1	0.000	
9	 C26	0.536	52.667	-86.476	C.2	1	RES1	0.000	
10	 C27	-0.152	51.451	-86.301	C.2	1	RES1	0.000	
11	 C28	-0.094	50.769	-85.128	C.2	1	RES1	0.000	
12	 C29	0.663	51.340	-84.075	C.2	1	RES1	0.000	
13	 C30	1.349	52.512	-84.242	C.2	1	RES1	0.000	
14	 C31	2.047	52.796	-82.987	C.2	1	RES1	0.000	
15	 C32	2.224	51.631	-80.749	C.3	1	RES1	0.000	
16	 C33	3.687	51.230	-80.708	C.3	1	RES1	0.000	
17	 C34	4.183	51.150	-79.253	C.3	1	RES1	0.000	
18	 C35	3.306	50.247	-78.444	C.2	1	RES1	0.000	
19	 C36	1.351	50.685	-79.928	C.2	1	RES1	0.000	
20	 C37	0.910	50.836	-82.700	C.2	1	RES1	0.000	
@<TRIPOS>BOND
1 4 8 1
2 8 9 ar
3 8 13 ar
4 9 10 ar
5 10 11 ar
6 11 12 ar
7 12 13 ar
8 12 20 ar
9 13 14 ar
10 1 14 2
11 6 14 ar
12 6 15 1
13 15 16 1
14 15 19 1
15 16 17 1
16 17 18 1
17 2 18 2
18 7 18 1
19 3 19 2
20 7 19 1
21 5 20 2
22 6 20 ar
@<TRIPOS>SUBSTRUCTURE
1	RES1	1	GROUP	1 ****	RES
