# created with PyMOL 2.5.2
@<TRIPOS>MOLECULE
BRD4_4TZ4_E3ligase
19 21 1                 
SMALL
USER_CHARGES
@<TRIPOS>ATOM
1	  O2	-46.456	50.045	-94.902	O.2	1	RES1	0.000	
2	  O3	-43.366	53.290	-95.410	O.2	1	RES1	0.000	
3	  N4	-46.312	59.122	-98.036	N.pl3	1	RES1	0.000	
4	  O4	-43.620	55.229	-94.472	O.2	1	RES1	0.000	
5	  N5	-45.238	55.268	-96.182	N.2	1	RES1	0.000	
6	  N6	-44.972	51.746	-95.132	N.pl3	1	RES1	0.000	
7	 C16	-45.352	58.825	-97.059	C.2	1	RES1	0.000	
8	 C17	-44.671	59.822	-96.382	C.2	1	RES1	0.000	
9	 C18	-43.760	59.559	-95.363	C.2	1	RES1	0.000	
10	 C19	-43.573	58.237	-94.918	C.2	1	RES1	0.000	
11	 C20	-44.306	57.241	-95.560	C.2	1	RES1	0.000	
12	 C21	-45.169	57.501	-96.592	C.2	1	RES1	0.000	
13	 C22	-45.843	56.245	-97.057	C.2	1	RES1	0.000	
14	 C23	-45.572	53.837	-96.305	C.3	1	RES1	0.000	
15	 C24	-46.978	53.492	-95.854	C.3	1	RES1	0.000	
16	 C25	-47.254	52.005	-96.050	C.3	1	RES1	0.000	
17	 C26	-46.228	51.183	-95.292	C.2	1	RES1	0.000	
18	 C27	-44.541	52.971	-95.564	C.2	1	RES1	0.000	
19	 C28	-44.312	55.805	-95.294	C.2	1	RES1	0.000	
@<TRIPOS>BOND
1 1 17 2
2 3 7 1
3 7 8 ar
4 7 12 ar
5 8 9 ar
6 9 10 ar
7 10 11 ar
8 11 12 ar
9 11 19 ar
10 12 13 ar
11 5 13 ar
12 5 14 1
13 14 15 1
14 14 18 1
15 15 16 1
16 16 17 1
17 6 17 1
18 2 18 2
19 6 18 1
20 4 19 2
21 5 19 ar
@<TRIPOS>SUBSTRUCTURE
1	RES1	1	GROUP	1 ****	RES
