# created with PyMOL 2.5.2
@<TRIPOS>MOLECULE
BRD2_7BQU_E3ligase
19 21 1                 
SMALL
USER_CHARGES
@<TRIPOS>ATOM
1	  O4	27.370	17.225	11.963	O.2	1	RES1	0.000	
2	  O5	26.364	20.278	17.905	O.2	1	RES1	0.000	
3	  O6	23.710	19.604	14.315	O.2	1	RES1	0.000	
4	  N7	25.405	17.717	13.145	N.2	1	RES1	0.000	
5	  O7	23.077	17.724	13.621	O.2	1	RES1	0.000	
6	  N8	25.080	19.877	16.072	N.pl3	1	RES1	0.000	
7	 C18	25.570	15.491	10.248	C.2	1	RES1	0.000	
8	 C19	24.497	14.835	9.684	C.2	1	RES1	0.000	
9	 C20	23.192	14.954	10.188	C.2	1	RES1	0.000	
10	 C21	22.922	15.784	11.290	C.2	1	RES1	0.000	
11	 C22	24.030	16.425	11.840	C.2	1	RES1	0.000	
12	 C23	25.269	16.287	11.339	C.2	1	RES1	0.000	
13	 C24	26.197	17.127	12.161	C.2	1	RES1	0.000	
14	 C25	25.940	18.657	14.127	C.3	1	RES1	0.000	
15	 C26	26.862	17.968	15.168	C.3	1	RES1	0.000	
16	 C27	27.393	19.026	16.126	C.3	1	RES1	0.000	
17	 C28	26.257	19.748	16.810	C.2	1	RES1	0.000	
18	 C29	24.776	19.382	14.844	C.2	1	RES1	0.000	
19	 C30	24.083	17.342	12.994	C.2	1	RES1	0.000	
@<TRIPOS>BOND
1 7 8 ar
2 7 12 ar
3 8 9 ar
4 9 10 ar
5 10 11 ar
6 11 12 ar
7 11 19 ar
8 12 13 ar
9 1 13 2
10 4 13 ar
11 4 14 1
12 14 15 1
13 14 18 1
14 15 16 1
15 16 17 1
16 2 17 2
17 6 17 1
18 3 18 2
19 6 18 1
20 4 19 ar
21 5 19 2
@<TRIPOS>SUBSTRUCTURE
1	RES1	1	GROUP	1 ****	RES
