# created with PyMOL 2.5.2
@<TRIPOS>MOLECULE
EGFR_6H0G_E3ligase
20 22 1                 
SMALL
USER_CHARGES
@<TRIPOS>ATOM
1	  O4	2.811	53.737	-82.832	O.2	1	RES1	0.000	
2	  O5	3.714	49.706	-77.399	O.2	1	RES1	0.000	
3	  O6	0.207	50.439	-80.188	O.2	1	RES1	0.000	
4	  N7	1.986	54.457	-85.580	N.pl3	1	RES1	0.000	
5	  O7	0.409	49.800	-82.246	O.2	1	RES1	0.000	
6	  N8	1.707	51.767	-82.121	N.2	1	RES1	0.000	
7	  N9	1.995	50.082	-78.839	N.pl3	1	RES1	0.000	
8	 C26	1.347	53.213	-85.444	C.2	1	RES1	0.000	
9	 C27	0.527	52.678	-86.475	C.2	1	RES1	0.000	
10	 C28	-0.183	51.476	-86.316	C.2	1	RES1	0.000	
11	 C29	-0.109	50.803	-85.103	C.2	1	RES1	0.000	
12	 C30	0.657	51.319	-84.067	C.2	1	RES1	0.000	
13	 C31	1.350	52.501	-84.238	C.2	1	RES1	0.000	
14	 C32	2.039	52.795	-83.003	C.2	1	RES1	0.000	
15	 C33	2.224	51.624	-80.745	C.3	1	RES1	0.000	
16	 C34	3.731	51.234	-80.682	C.3	1	RES1	0.000	
17	 C35	4.155	51.195	-79.226	C.3	1	RES1	0.000	
18	 C36	3.283	50.258	-78.401	C.2	1	RES1	0.000	
19	 C37	1.383	50.660	-79.924	C.2	1	RES1	0.000	
20	 C38	0.892	50.849	-82.738	C.2	1	RES1	0.000	
@<TRIPOS>BOND
1 4 8 1
2 8 9 ar
3 8 13 ar
4 9 10 ar
5 10 11 ar
6 11 12 ar
7 12 13 ar
8 12 20 ar
9 13 14 ar
10 1 14 2
11 6 14 ar
12 6 15 1
13 15 16 1
14 15 19 1
15 16 17 1
16 17 18 1
17 2 18 2
18 7 18 1
19 3 19 2
20 7 19 1
21 5 20 2
22 6 20 ar
@<TRIPOS>SUBSTRUCTURE
1	RES1	1	GROUP	1 ****	RES
