# created with PyMOL 2.5.2
@<TRIPOS>MOLECULE
EGFR_6H0G_E3ligase
20 22 1                 
SMALL
USER_CHARGES
@<TRIPOS>ATOM
1	  O4	2.772	53.731	-82.786	O.2	1	RES1	0.000	
2	  O5	3.732	49.756	-77.390	O.2	1	RES1	0.000	
3	  O6	0.253	50.262	-80.273	O.2	1	RES1	0.000	
4	  N7	2.126	54.373	-85.619	N.pl3	1	RES1	0.000	
5	  O7	0.291	49.854	-82.253	O.2	1	RES1	0.000	
6	  N8	1.733	51.723	-82.121	N.2	1	RES1	0.000	
7	  N9	2.042	50.021	-78.885	N.pl3	1	RES1	0.000	
8	 C26	1.343	53.226	-85.425	C.2	1	RES1	0.000	
9	 C27	0.573	52.699	-86.478	C.2	1	RES1	0.000	
10	 C28	-0.200	51.508	-86.327	C.2	1	RES1	0.000	
11	 C29	-0.167	50.829	-85.084	C.2	1	RES1	0.000	
12	 C30	0.621	51.316	-84.070	C.2	1	RES1	0.000	
13	 C31	1.349	52.505	-84.250	C.2	1	RES1	0.000	
14	 C32	2.039	52.751	-82.969	C.2	1	RES1	0.000	
15	 C33	2.213	51.644	-80.754	C.3	1	RES1	0.000	
16	 C34	3.712	51.356	-80.627	C.3	1	RES1	0.000	
17	 C35	4.113	51.332	-79.165	C.3	1	RES1	0.000	
18	 C36	3.314	50.299	-78.395	C.2	1	RES1	0.000	
19	 C37	1.428	50.582	-79.975	C.2	1	RES1	0.000	
20	 C38	0.839	50.829	-82.720	C.2	1	RES1	0.000	
@<TRIPOS>BOND
1 4 8 1
2 8 9 ar
3 8 13 ar
4 9 10 ar
5 10 11 ar
6 11 12 ar
7 12 13 ar
8 12 20 ar
9 13 14 ar
10 1 14 2
11 6 14 ar
12 6 15 1
13 15 16 1
14 15 19 1
15 16 17 1
16 17 18 1
17 2 18 2
18 7 18 1
19 3 19 2
20 7 19 1
21 5 20 2
22 6 20 ar
@<TRIPOS>SUBSTRUCTURE
1	RES1	1	GROUP	1 ****	RES
