# created with PyMOL 2.5.2
@<TRIPOS>MOLECULE
EGFR_6H0G_E3ligase
20 22 1                 
SMALL
USER_CHARGES
@<TRIPOS>ATOM
1	  O4	2.812	53.772	-82.832	O.2	1	RES1	0.000	
2	  O5	3.686	49.611	-77.439	O.3	1	RES1	0.000	
3	  O6	0.191	50.470	-80.208	O.2	1	RES1	0.000	
4	  N7	1.954	54.434	-85.596	N.pl3	1	RES1	0.000	
5	  O7	0.456	49.826	-82.240	O.2	1	RES1	0.000	
6	  N8	1.740	51.818	-82.101	N.2	1	RES1	0.000	
7	  N9	1.978	50.084	-78.879	N.pl3	1	RES1	0.000	
8	 C27	1.319	53.195	-85.454	C.2	1	RES1	0.000	
9	 C28	0.510	52.662	-86.453	C.2	1	RES1	0.000	
10	 C29	-0.162	51.444	-86.284	C.2	1	RES1	0.000	
11	 C30	-0.100	50.771	-85.053	C.2	1	RES1	0.000	
12	 C31	0.667	51.330	-84.067	C.2	1	RES1	0.000	
13	 C32	1.350	52.516	-84.250	C.2	1	RES1	0.000	
14	 C33	2.052	52.797	-82.988	C.2	1	RES1	0.000	
15	 C34	2.238	51.669	-80.740	C.3	1	RES1	0.000	
16	 C35	3.713	51.273	-80.665	C.3	1	RES1	0.000	
17	 C36	4.135	51.154	-79.215	C.3	1	RES1	0.000	
18	 C37	3.285	50.220	-78.441	C.3	1	RES1	0.000	
19	 C38	1.381	50.682	-79.956	C.2	1	RES1	0.000	
20	 C39	0.920	50.867	-82.706	C.2	1	RES1	0.000	
@<TRIPOS>BOND
1 4 8 1
2 8 9 ar
3 8 13 ar
4 9 10 ar
5 10 11 ar
6 11 12 ar
7 12 13 ar
8 12 20 ar
9 13 14 ar
10 1 14 2
11 6 14 ar
12 6 15 1
13 15 16 1
14 15 19 1
15 16 17 1
16 17 18 1
17 2 18 1
18 7 18 1
19 3 19 2
20 7 19 1
21 5 20 2
22 6 20 ar
@<TRIPOS>SUBSTRUCTURE
1	RES1	1	GROUP	1 ****	RES
