# created with PyMOL 2.5.2
@<TRIPOS>MOLECULE
EGFR_6H0G_E3ligase
20 22 1                 
SMALL
USER_CHARGES
@<TRIPOS>ATOM
1	  O4	2.822	53.740	-82.842	O.2	1	RES1	0.000	
2	  O5	3.686	49.675	-77.415	O.2	1	RES1	0.000	
3	  O6	0.211	50.431	-80.218	O.2	1	RES1	0.000	
4	  N7	1.961	54.462	-85.616	N.pl3	1	RES1	0.000	
5	  O7	0.424	49.813	-82.241	O.2	1	RES1	0.000	
6	  N8	1.731	51.784	-82.121	N.2	1	RES1	0.000	
7	  N9	1.978	50.069	-78.896	N.pl3	1	RES1	0.000	
8	 C27	1.324	53.199	-85.435	C.2	1	RES1	0.000	
9	 C28	0.539	52.666	-86.486	C.2	1	RES1	0.000	
10	 C29	-0.182	51.471	-86.287	C.2	1	RES1	0.000	
11	 C30	-0.125	50.799	-85.073	C.2	1	RES1	0.000	
12	 C31	0.659	51.348	-84.063	C.2	1	RES1	0.000	
13	 C32	1.339	52.499	-84.238	C.2	1	RES1	0.000	
14	 C33	2.076	52.798	-82.987	C.2	1	RES1	0.000	
15	 C34	2.244	51.641	-80.735	C.3	1	RES1	0.000	
16	 C35	3.712	51.252	-80.645	C.3	1	RES1	0.000	
17	 C36	4.153	51.198	-79.205	C.3	1	RES1	0.000	
18	 C37	3.280	50.225	-78.413	C.2	1	RES1	0.000	
19	 C38	1.393	50.663	-79.962	C.2	1	RES1	0.000	
20	 C39	0.900	50.860	-82.688	C.2	1	RES1	0.000	
@<TRIPOS>BOND
1 4 8 1
2 8 9 ar
3 8 13 ar
4 9 10 ar
5 10 11 ar
6 11 12 ar
7 12 13 ar
8 12 20 ar
9 13 14 ar
10 1 14 2
11 6 14 ar
12 6 15 1
13 15 16 1
14 15 19 1
15 16 17 1
16 17 18 1
17 2 18 2
18 7 18 1
19 3 19 2
20 7 19 1
21 5 20 2
22 6 20 ar
@<TRIPOS>SUBSTRUCTURE
1	RES1	1	GROUP	1 ****	RES
