# created with PyMOL 2.5.2
@<TRIPOS>MOLECULE
EGFR_6H0G_E3ligase
20 22 1                 
SMALL
USER_CHARGES
@<TRIPOS>ATOM
1	  O4	2.809	53.768	-82.824	O.2	1	RES1	0.000	
2	  O5	3.689	49.677	-77.420	O.2	1	RES1	0.000	
3	  O6	0.196	50.465	-80.183	O.2	1	RES1	0.000	
4	  N7	1.964	54.447	-85.600	N.pl3	1	RES1	0.000	
5	  O7	0.454	49.812	-82.267	O.2	1	RES1	0.000	
6	  N8	1.721	51.792	-82.112	N.2	1	RES1	0.000	
7	  N9	1.979	50.082	-78.838	N.pl3	1	RES1	0.000	
8	 C28	1.342	53.193	-85.443	C.2	1	RES1	0.000	
9	 C29	0.525	52.686	-86.473	C.2	1	RES1	0.000	
10	 C30	-0.189	51.450	-86.286	C.2	1	RES1	0.000	
11	 C31	-0.124	50.763	-85.082	C.2	1	RES1	0.000	
12	 C32	0.662	51.354	-84.075	C.2	1	RES1	0.000	
13	 C33	1.363	52.510	-84.239	C.2	1	RES1	0.000	
14	 C34	2.065	52.797	-82.999	C.2	1	RES1	0.000	
15	 C35	2.241	51.647	-80.735	C.3	1	RES1	0.000	
16	 C36	3.720	51.233	-80.660	C.3	1	RES1	0.000	
17	 C37	4.155	51.166	-79.236	C.3	1	RES1	0.000	
18	 C38	3.278	50.235	-78.433	C.2	1	RES1	0.000	
19	 C39	1.378	50.651	-79.953	C.2	1	RES1	0.000	
20	 C40	0.896	50.867	-82.708	C.2	1	RES1	0.000	
@<TRIPOS>BOND
1 4 8 1
2 8 9 ar
3 8 13 ar
4 9 10 ar
5 10 11 ar
6 11 12 ar
7 12 13 ar
8 12 20 ar
9 13 14 ar
10 1 14 2
11 6 14 ar
12 6 15 1
13 15 16 1
14 15 19 1
15 16 17 1
16 17 18 1
17 2 18 2
18 7 18 1
19 3 19 2
20 7 19 1
21 5 20 2
22 6 20 ar
@<TRIPOS>SUBSTRUCTURE
1	RES1	1	GROUP	1 ****	RES
