# created with PyMOL 2.5.2
@<TRIPOS>MOLECULE
EGFR_6H0G_E3ligase
20 22 1                 
SMALL
USER_CHARGES
@<TRIPOS>ATOM
1	  O4	2.806	53.742	-82.842	O.2	1	RES1	0.000	
2	  O5	3.701	49.653	-77.417	O.3	1	RES1	0.000	
3	  O6	0.209	50.430	-80.198	O.2	1	RES1	0.000	
4	  N7	1.961	54.444	-85.610	N.pl3	1	RES1	0.000	
5	  O7	0.440	49.833	-82.250	O.2	1	RES1	0.000	
6	  N8	1.726	51.798	-82.096	N.2	1	RES1	0.000	
7	  N9	2.005	50.050	-78.876	N.pl3	1	RES1	0.000	
8	 C28	1.338	53.206	-85.469	C.2	1	RES1	0.000	
9	 C29	0.534	52.665	-86.468	C.2	1	RES1	0.000	
10	 C30	-0.165	51.469	-86.276	C.2	1	RES1	0.000	
11	 C31	-0.120	50.767	-85.081	C.2	1	RES1	0.000	
12	 C32	0.657	51.342	-84.068	C.2	1	RES1	0.000	
13	 C33	1.351	52.484	-84.238	C.2	1	RES1	0.000	
14	 C34	2.066	52.809	-82.999	C.2	1	RES1	0.000	
15	 C35	2.225	51.659	-80.742	C.3	1	RES1	0.000	
16	 C36	3.692	51.259	-80.679	C.3	1	RES1	0.000	
17	 C37	4.144	51.212	-79.203	C.3	1	RES1	0.000	
18	 C38	3.279	50.236	-78.411	C.3	1	RES1	0.000	
19	 C39	1.385	50.655	-79.946	C.2	1	RES1	0.000	
20	 C40	0.891	50.880	-82.698	C.2	1	RES1	0.000	
@<TRIPOS>BOND
1 4 8 1
2 8 9 ar
3 8 13 ar
4 9 10 ar
5 10 11 ar
6 11 12 ar
7 12 13 ar
8 12 20 ar
9 13 14 ar
10 1 14 2
11 6 14 ar
12 6 15 1
13 15 16 1
14 15 19 1
15 16 17 1
16 17 18 1
17 2 18 1
18 7 18 1
19 3 19 2
20 7 19 1
21 5 20 2
22 6 20 ar
@<TRIPOS>SUBSTRUCTURE
1	RES1	1	GROUP	1 ****	RES
