# created with PyMOL 2.5.2
@<TRIPOS>MOLECULE
EGFR_6H0G_E3ligase
20 22 1                 
SMALL
USER_CHARGES
@<TRIPOS>ATOM
1	  O4	2.806	53.737	-82.825	O.2	1	RES1	0.000	
2	  O5	3.710	49.699	-77.397	O.2	1	RES1	0.000	
3	  O6	0.189	50.461	-80.158	O.2	1	RES1	0.000	
4	  N7	1.969	54.463	-85.590	N.pl3	1	RES1	0.000	
5	  O7	0.453	49.807	-82.251	O.2	1	RES1	0.000	
6	  N8	1.702	51.780	-82.101	N.2	1	RES1	0.000	
7	  N9	1.996	50.088	-78.844	N.pl3	1	RES1	0.000	
8	 C29	1.337	53.214	-85.455	C.2	1	RES1	0.000	
9	 C30	0.526	52.682	-86.460	C.2	1	RES1	0.000	
10	 C31	-0.167	51.473	-86.297	C.2	1	RES1	0.000	
11	 C32	-0.100	50.767	-85.099	C.2	1	RES1	0.000	
12	 C33	0.670	51.322	-84.060	C.2	1	RES1	0.000	
13	 C34	1.359	52.513	-84.259	C.2	1	RES1	0.000	
14	 C35	2.058	52.796	-82.996	C.2	1	RES1	0.000	
15	 C36	2.215	51.639	-80.756	C.3	1	RES1	0.000	
16	 C37	3.685	51.222	-80.691	C.3	1	RES1	0.000	
17	 C38	4.159	51.187	-79.257	C.3	1	RES1	0.000	
18	 C39	3.293	50.233	-78.419	C.2	1	RES1	0.000	
19	 C40	1.377	50.658	-79.935	C.2	1	RES1	0.000	
20	 C41	0.889	50.852	-82.718	C.2	1	RES1	0.000	
@<TRIPOS>BOND
1 4 8 1
2 8 9 ar
3 8 13 ar
4 9 10 ar
5 10 11 ar
6 11 12 ar
7 12 13 ar
8 12 20 ar
9 13 14 ar
10 1 14 2
11 6 14 ar
12 6 15 1
13 15 16 1
14 15 19 1
15 16 17 1
16 17 18 1
17 2 18 2
18 7 18 1
19 3 19 2
20 7 19 1
21 5 20 2
22 6 20 ar
@<TRIPOS>SUBSTRUCTURE
1	RES1	1	GROUP	1 ****	RES
