# created with PyMOL 2.5.2
@<TRIPOS>MOLECULE
EGFR_6H0G_E3ligase
20 22 1                 
SMALL
USER_CHARGES
@<TRIPOS>ATOM
1	  O4	2.790	53.762	-82.840	O.2	1	RES1	0.000	
2	  O5	3.699	49.638	-77.431	O.3	1	RES1	0.000	
3	  O6	0.208	50.462	-80.185	O.2	1	RES1	0.000	
4	  N7	1.961	54.437	-85.602	N.pl3	1	RES1	0.000	
5	  O7	0.440	49.823	-82.250	O.2	1	RES1	0.000	
6	  N8	1.708	51.812	-82.128	N.2	1	RES1	0.000	
7	  N9	1.997	50.070	-78.878	N.pl3	1	RES1	0.000	
8	 C29	1.350	53.198	-85.448	C.2	1	RES1	0.000	
9	 C30	0.538	52.673	-86.469	C.2	1	RES1	0.000	
10	 C31	-0.160	51.475	-86.294	C.2	1	RES1	0.000	
11	 C32	-0.122	50.758	-85.061	C.2	1	RES1	0.000	
12	 C33	0.677	51.316	-84.047	C.2	1	RES1	0.000	
13	 C34	1.352	52.492	-84.232	C.2	1	RES1	0.000	
14	 C35	2.036	52.811	-82.973	C.2	1	RES1	0.000	
15	 C36	2.225	51.658	-80.728	C.3	1	RES1	0.000	
16	 C37	3.714	51.273	-80.685	C.3	1	RES1	0.000	
17	 C38	4.148	51.189	-79.210	C.3	1	RES1	0.000	
18	 C39	3.289	50.230	-78.426	C.3	1	RES1	0.000	
19	 C40	1.370	50.657	-79.966	C.2	1	RES1	0.000	
20	 C41	0.905	50.858	-82.713	C.2	1	RES1	0.000	
@<TRIPOS>BOND
1 4 8 1
2 8 9 ar
3 8 13 ar
4 9 10 ar
5 10 11 ar
6 11 12 ar
7 12 13 ar
8 12 20 ar
9 13 14 ar
10 1 14 2
11 6 14 ar
12 6 15 1
13 15 16 1
14 15 19 1
15 16 17 1
16 17 18 1
17 2 18 1
18 7 18 1
19 3 19 2
20 7 19 1
21 5 20 2
22 6 20 ar
@<TRIPOS>SUBSTRUCTURE
1	RES1	1	GROUP	1 ****	RES
