# created with PyMOL 2.5.2
@<TRIPOS>MOLECULE
EGFR_6H0G_E3ligase
20 22 1                 
SMALL
USER_CHARGES
@<TRIPOS>ATOM
1	  O4	2.823	53.748	-82.850	O.2	1	RES1	0.000	
2	  O5	3.674	49.669	-77.423	O.3	1	RES1	0.000	
3	  O6	0.219	50.423	-80.245	O.2	1	RES1	0.000	
4	  N7	1.963	54.423	-85.614	N.pl3	1	RES1	0.000	
5	  O7	0.416	49.843	-82.247	O.2	1	RES1	0.000	
6	  N8	1.749	51.801	-82.118	N.2	1	RES1	0.000	
7	  N9	1.990	50.052	-78.889	N.pl3	1	RES1	0.000	
8	 C30	1.336	53.207	-85.449	C.2	1	RES1	0.000	
9	 C31	0.524	52.668	-86.474	C.2	1	RES1	0.000	
10	 C32	-0.188	51.486	-86.271	C.2	1	RES1	0.000	
11	 C33	-0.128	50.791	-85.056	C.2	1	RES1	0.000	
12	 C34	0.663	51.316	-84.053	C.2	1	RES1	0.000	
13	 C35	1.355	52.497	-84.243	C.2	1	RES1	0.000	
14	 C36	2.065	52.783	-82.994	C.2	1	RES1	0.000	
15	 C37	2.257	51.660	-80.727	C.3	1	RES1	0.000	
16	 C38	3.717	51.279	-80.640	C.3	1	RES1	0.000	
17	 C39	4.129	51.203	-79.202	C.3	1	RES1	0.000	
18	 C40	3.273	50.228	-78.404	C.3	1	RES1	0.000	
19	 C41	1.396	50.641	-79.974	C.2	1	RES1	0.000	
20	 C42	0.891	50.876	-82.692	C.2	1	RES1	0.000	
@<TRIPOS>BOND
1 4 8 1
2 8 9 ar
3 8 13 ar
4 9 10 ar
5 10 11 ar
6 11 12 ar
7 12 13 ar
8 12 20 ar
9 13 14 ar
10 1 14 2
11 6 14 ar
12 6 15 1
13 15 16 1
14 15 19 1
15 16 17 1
16 17 18 1
17 2 18 1
18 7 18 1
19 3 19 2
20 7 19 1
21 5 20 2
22 6 20 ar
@<TRIPOS>SUBSTRUCTURE
1	RES1	1	GROUP	1 ****	RES
