# created with PyMOL 2.5.2
@<TRIPOS>MOLECULE
EGFR_6H0G_E3ligase
20 22 1                 
SMALL
USER_CHARGES
@<TRIPOS>ATOM
1	  O4	2.803	53.743	-82.829	O.2	1	RES1	0.000	
2	  O5	3.709	49.681	-77.412	O.2	1	RES1	0.000	
3	  O6	0.198	50.413	-80.200	O.2	1	RES1	0.000	
4	  N7	1.985	54.445	-85.606	N.pl3	1	RES1	0.000	
5	  O7	0.427	49.822	-82.252	O.2	1	RES1	0.000	
6	  N8	1.712	51.785	-82.103	N.2	1	RES1	0.000	
7	  N9	2.010	50.059	-78.880	N.pl3	1	RES1	0.000	
8	 C30	1.356	53.189	-85.467	C.2	1	RES1	0.000	
9	 C31	0.538	52.671	-86.472	C.2	1	RES1	0.000	
10	 C32	-0.181	51.474	-86.288	C.2	1	RES1	0.000	
11	 C33	-0.118	50.801	-85.072	C.2	1	RES1	0.000	
12	 C34	0.662	51.325	-84.056	C.2	1	RES1	0.000	
13	 C35	1.355	52.506	-84.250	C.2	1	RES1	0.000	
14	 C36	2.039	52.801	-82.990	C.2	1	RES1	0.000	
15	 C37	2.223	51.641	-80.723	C.3	1	RES1	0.000	
16	 C38	3.683	51.260	-80.674	C.3	1	RES1	0.000	
17	 C39	4.146	51.229	-79.200	C.3	1	RES1	0.000	
18	 C40	3.298	50.239	-78.426	C.2	1	RES1	0.000	
19	 C41	1.386	50.638	-79.964	C.2	1	RES1	0.000	
20	 C42	0.895	50.871	-82.702	C.2	1	RES1	0.000	
@<TRIPOS>BOND
1 4 8 1
2 8 9 ar
3 8 13 ar
4 9 10 ar
5 10 11 ar
6 11 12 ar
7 12 13 ar
8 12 20 ar
9 13 14 ar
10 1 14 2
11 6 14 ar
12 6 15 1
13 15 16 1
14 15 19 1
15 16 17 1
16 17 18 1
17 2 18 2
18 7 18 1
19 3 19 2
20 7 19 1
21 5 20 2
22 6 20 ar
@<TRIPOS>SUBSTRUCTURE
1	RES1	1	GROUP	1 ****	RES
