# created with PyMOL 2.5.2
@<TRIPOS>MOLECULE
BRD4_4TZ4_E3ligase
19 21 1                 
SMALL
USER_CHARGES
@<TRIPOS>ATOM
1	  O2	-46.458	50.054	-94.870	O.2	1	RES1	0.000	
2	  O3	-43.344	53.294	-95.487	O.2	1	RES1	0.000	
3	  N4	-46.216	59.150	-98.105	N.pl3	1	RES1	0.000	
4	  O4	-43.692	55.224	-94.458	O.2	1	RES1	0.000	
5	  N5	-45.214	55.252	-96.275	N.2	1	RES1	0.000	
6	  N6	-44.949	51.713	-95.170	N.pl3	1	RES1	0.000	
7	 C17	-45.389	58.841	-97.007	C.2	1	RES1	0.000	
8	 C18	-44.649	59.855	-96.367	C.2	1	RES1	0.000	
9	 C19	-43.757	59.508	-95.317	C.2	1	RES1	0.000	
10	 C20	-43.611	58.208	-94.885	C.2	1	RES1	0.000	
11	 C21	-44.328	57.224	-95.581	C.2	1	RES1	0.000	
12	 C22	-45.216	57.514	-96.578	C.2	1	RES1	0.000	
13	 C23	-45.830	56.262	-97.102	C.2	1	RES1	0.000	
14	 C24	-45.574	53.823	-96.333	C.3	1	RES1	0.000	
15	 C25	-46.965	53.528	-95.761	C.3	1	RES1	0.000	
16	 C26	-47.257	52.059	-95.916	C.3	1	RES1	0.000	
17	 C27	-46.216	51.185	-95.256	C.2	1	RES1	0.000	
18	 C28	-44.506	52.956	-95.622	C.2	1	RES1	0.000	
19	 C29	-44.353	55.773	-95.332	C.2	1	RES1	0.000	
@<TRIPOS>BOND
1 1 17 2
2 3 7 1
3 7 8 ar
4 7 12 ar
5 8 9 ar
6 9 10 ar
7 10 11 ar
8 11 12 ar
9 11 19 ar
10 12 13 ar
11 5 13 ar
12 5 14 1
13 14 15 1
14 14 18 1
15 15 16 1
16 16 17 1
17 6 17 1
18 2 18 2
19 6 18 1
20 4 19 2
21 5 19 ar
@<TRIPOS>SUBSTRUCTURE
1	RES1	1	GROUP	1 ****	RES
