# created with PyMOL 2.5.2
@<TRIPOS>MOLECULE
PARP14_6H0G_E3ligase
20 22 1                 
SMALL
USER_CHARGES
@<TRIPOS>ATOM
1	  O3	2.830	53.745	-82.845	O.2	1	RES1	0.000	
2	  O4	3.690	49.690	-77.401	O.2	1	RES1	0.000	
3	  O5	0.201	50.445	-80.202	O.2	1	RES1	0.000	
4	  N6	2.001	54.447	-85.595	N.pl3	1	RES1	0.000	
5	  O6	0.433	49.818	-82.262	O.2	1	RES1	0.000	
6	  N7	1.719	51.775	-82.134	N.2	1	RES1	0.000	
7	  N8	1.980	50.086	-78.842	N.pl3	1	RES1	0.000	
8	 C28	1.316	53.212	-85.454	C.2	1	RES1	0.000	
9	 C29	0.517	52.676	-86.470	C.2	1	RES1	0.000	
10	 C30	-0.209	51.488	-86.290	C.2	1	RES1	0.000	
11	 C31	-0.126	50.787	-85.090	C.2	1	RES1	0.000	
12	 C32	0.677	51.335	-84.058	C.2	1	RES1	0.000	
13	 C33	1.334	52.499	-84.233	C.2	1	RES1	0.000	
14	 C34	2.067	52.794	-83.006	C.2	1	RES1	0.000	
15	 C35	2.244	51.636	-80.752	C.3	1	RES1	0.000	
16	 C36	3.735	51.235	-80.654	C.3	1	RES1	0.000	
17	 C37	4.154	51.194	-79.200	C.3	1	RES1	0.000	
18	 C38	3.284	50.236	-78.415	C.2	1	RES1	0.000	
19	 C39	1.373	50.665	-79.950	C.2	1	RES1	0.000	
20	 C40	0.903	50.831	-82.712	C.2	1	RES1	0.000	
@<TRIPOS>BOND
1 1 14 2
2 4 8 1
3 8 9 ar
4 8 13 ar
5 9 10 ar
6 10 11 ar
7 11 12 ar
8 12 13 ar
9 12 20 ar
10 13 14 ar
11 6 14 ar
12 6 15 1
13 15 16 1
14 15 19 1
15 16 17 1
16 17 18 1
17 2 18 2
18 7 18 1
19 3 19 2
20 7 19 1
21 5 20 2
22 6 20 ar
@<TRIPOS>SUBSTRUCTURE
1	RES1	1	GROUP	1 ****	RES
