# created with PyMOL 2.5.2
@<TRIPOS>MOLECULE
ALK_6H0G_E3ligase
20 22 1                 
SMALL
USER_CHARGES
@<TRIPOS>ATOM
1	  N4	2.012	54.442	-85.595	N.pl3	1	RES1	0.000	
2	  O4	2.825	53.735	-82.867	O.2	1	RES1	0.000	
3	  N5	1.728	51.750	-82.115	N.2	1	RES1	0.000	
4	  O5	3.674	49.720	-77.387	O.2	1	RES1	0.000	
5	  N6	2.007	50.075	-78.842	N.pl3	1	RES1	0.000	
6	  O6	0.225	50.399	-80.215	O.2	1	RES1	0.000	
7	  O7	0.404	49.803	-82.262	O.2	1	RES1	0.000	
8	 C15	1.333	53.209	-85.451	C.2	1	RES1	0.000	
9	 C16	0.523	52.688	-86.453	C.2	1	RES1	0.000	
10	 C17	-0.208	51.511	-86.290	C.2	1	RES1	0.000	
11	 C18	-0.150	50.808	-85.057	C.2	1	RES1	0.000	
12	 C19	0.655	51.342	-84.084	C.2	1	RES1	0.000	
13	 C20	1.377	52.481	-84.269	C.2	1	RES1	0.000	
14	 C21	2.064	52.779	-83.010	C.2	1	RES1	0.000	
15	 C22	2.247	51.622	-80.743	C.3	1	RES1	0.000	
16	 C23	3.709	51.245	-80.659	C.3	1	RES1	0.000	
17	 C24	4.134	51.247	-79.197	C.3	1	RES1	0.000	
18	 C25	3.283	50.252	-78.396	C.2	1	RES1	0.000	
19	 C26	1.393	50.649	-79.955	C.2	1	RES1	0.000	
20	 C27	0.892	50.839	-82.718	C.2	1	RES1	0.000	
@<TRIPOS>BOND
1 1 8 1
2 8 9 ar
3 8 13 ar
4 9 10 ar
5 10 11 ar
6 11 12 ar
7 12 13 ar
8 12 20 ar
9 13 14 ar
10 2 14 2
11 3 14 ar
12 3 15 1
13 15 16 1
14 15 19 1
15 16 17 1
16 17 18 1
17 4 18 2
18 5 18 1
19 5 19 1
20 6 19 2
21 3 20 ar
22 7 20 2
@<TRIPOS>SUBSTRUCTURE
1	RES1	1	GROUP	1 ****	RES
