# created with PyMOL 2.5.2
@<TRIPOS>MOLECULE
ALK_6H0G_E3ligase
20 22 1                 
SMALL
USER_CHARGES
@<TRIPOS>ATOM
1	  N4	2.140	54.360	-85.612	N.pl3	1	RES1	0.000	
2	  N5	1.714	51.703	-82.136	N.2	1	RES1	0.000	
3	  O5	2.765	53.724	-82.763	O.2	1	RES1	0.000	
4	  N6	2.052	50.024	-78.865	N.pl3	1	RES1	0.000	
5	  O6	3.759	49.767	-77.398	O.2	1	RES1	0.000	
6	  O7	0.245	50.265	-80.235	O.2	1	RES1	0.000	
7	  O8	0.307	49.847	-82.251	O.2	1	RES1	0.000	
8	 C17	1.332	53.228	-85.427	C.2	1	RES1	0.000	
9	 C18	0.581	52.711	-86.484	C.2	1	RES1	0.000	
10	 C19	-0.183	51.508	-86.321	C.2	1	RES1	0.000	
11	 C20	-0.147	50.809	-85.102	C.2	1	RES1	0.000	
12	 C21	0.615	51.332	-84.080	C.2	1	RES1	0.000	
13	 C22	1.362	52.501	-84.226	C.2	1	RES1	0.000	
14	 C23	2.034	52.752	-82.978	C.2	1	RES1	0.000	
15	 C24	2.202	51.645	-80.744	C.3	1	RES1	0.000	
16	 C25	3.674	51.383	-80.638	C.3	1	RES1	0.000	
17	 C26	4.102	51.322	-79.186	C.3	1	RES1	0.000	
18	 C27	3.316	50.309	-78.428	C.2	1	RES1	0.000	
19	 C28	1.421	50.568	-79.975	C.2	1	RES1	0.000	
20	 C29	0.834	50.836	-82.720	C.2	1	RES1	0.000	
@<TRIPOS>BOND
1 1 8 1
2 8 9 ar
3 8 13 ar
4 9 10 ar
5 10 11 ar
6 11 12 ar
7 12 13 ar
8 12 20 ar
9 13 14 ar
10 2 14 ar
11 3 14 2
12 2 15 1
13 15 16 1
14 15 19 1
15 16 17 1
16 17 18 1
17 4 18 1
18 5 18 2
19 4 19 1
20 6 19 2
21 2 20 ar
22 7 20 2
@<TRIPOS>SUBSTRUCTURE
1	RES1	1	GROUP	1 ****	RES
