# created with PyMOL 2.5.2
@<TRIPOS>MOLECULE
ALK_6H0G_E3ligase
20 22 1                 
SMALL
USER_CHARGES
@<TRIPOS>ATOM
1	  N4	1.981	54.440	-85.617	N.pl3	1	RES1	0.000	
2	  N5	1.737	51.780	-82.117	N.2	1	RES1	0.000	
3	  N6	1.987	50.070	-78.862	N.pl3	1	RES1	0.000	
4	  O6	2.826	53.731	-82.849	O.2	1	RES1	0.000	
5	  O7	3.671	49.687	-77.399	O.2	1	RES1	0.000	
6	  O8	0.205	50.426	-80.236	O.2	1	RES1	0.000	
7	  O9	0.445	49.819	-82.237	O.2	1	RES1	0.000	
8	 C19	1.322	53.205	-85.431	C.2	1	RES1	0.000	
9	 C20	0.521	52.674	-86.466	C.2	1	RES1	0.000	
10	 C21	-0.195	51.497	-86.274	C.2	1	RES1	0.000	
11	 C22	-0.129	50.782	-85.071	C.2	1	RES1	0.000	
12	 C23	0.667	51.338	-84.069	C.2	1	RES1	0.000	
13	 C24	1.350	52.499	-84.251	C.2	1	RES1	0.000	
14	 C25	2.090	52.793	-82.991	C.2	1	RES1	0.000	
15	 C26	2.252	51.645	-80.739	C.3	1	RES1	0.000	
16	 C27	3.715	51.249	-80.657	C.3	1	RES1	0.000	
17	 C28	4.137	51.196	-79.223	C.3	1	RES1	0.000	
18	 C29	3.275	50.242	-78.419	C.2	1	RES1	0.000	
19	 C30	1.395	50.655	-79.950	C.2	1	RES1	0.000	
20	 C31	0.876	50.864	-82.707	C.2	1	RES1	0.000	
@<TRIPOS>BOND
1 1 8 1
2 8 9 ar
3 8 13 ar
4 9 10 ar
5 10 11 ar
6 11 12 ar
7 12 13 ar
8 12 20 ar
9 13 14 ar
10 2 14 ar
11 4 14 2
12 2 15 1
13 15 16 1
14 15 19 1
15 16 17 1
16 17 18 1
17 3 18 1
18 5 18 2
19 3 19 1
20 6 19 2
21 2 20 ar
22 7 20 2
@<TRIPOS>SUBSTRUCTURE
1	RES1	1	GROUP	1 ****	RES
