# created with PyMOL 2.5.2
@<TRIPOS>MOLECULE
ALK_6H0G_E3ligase
20 22 1                 
SMALL
USER_CHARGES
@<TRIPOS>ATOM
1	  N4	1.972	54.458	-85.602	N.pl3	1	RES1	0.000	
2	  N5	1.716	51.759	-82.121	N.2	1	RES1	0.000	
3	  N6	1.986	50.094	-78.847	N.pl3	1	RES1	0.000	
4	  O7	2.821	53.747	-82.850	O.2	1	RES1	0.000	
5	  O8	3.693	49.705	-77.417	O.2	1	RES1	0.000	
6	  O9	0.193	50.462	-80.174	O.2	1	RES1	0.000	
7	 O10	0.440	49.811	-82.256	O.2	1	RES1	0.000	
8	 C21	1.332	53.195	-85.434	C.2	1	RES1	0.000	
9	 C22	0.512	52.683	-86.467	C.2	1	RES1	0.000	
10	 C23	-0.171	51.489	-86.286	C.2	1	RES1	0.000	
11	 C24	-0.116	50.791	-85.088	C.2	1	RES1	0.000	
12	 C25	0.670	51.314	-84.081	C.2	1	RES1	0.000	
13	 C26	1.346	52.504	-84.237	C.2	1	RES1	0.000	
14	 C27	2.065	52.794	-83.003	C.2	1	RES1	0.000	
15	 C28	2.239	51.624	-80.755	C.3	1	RES1	0.000	
16	 C29	3.726	51.230	-80.680	C.3	1	RES1	0.000	
17	 C30	4.157	51.168	-79.228	C.3	1	RES1	0.000	
18	 C31	3.276	50.247	-78.392	C.2	1	RES1	0.000	
19	 C32	1.376	50.655	-79.926	C.2	1	RES1	0.000	
20	 C33	0.891	50.861	-82.724	C.2	1	RES1	0.000	
@<TRIPOS>BOND
1 7 20 2
2 1 8 1
3 8 9 ar
4 8 13 ar
5 9 10 ar
6 10 11 ar
7 11 12 ar
8 12 13 ar
9 12 20 ar
10 13 14 ar
11 2 14 ar
12 4 14 2
13 2 15 1
14 15 16 1
15 15 19 1
16 16 17 1
17 17 18 1
18 3 18 1
19 5 18 2
20 3 19 1
21 6 19 2
22 2 20 ar
@<TRIPOS>SUBSTRUCTURE
1	RES1	1	GROUP	1 ****	RES
