# created with PyMOL 2.5.2
@<TRIPOS>MOLECULE
ALK_6H0G_E3ligase
20 22 1                 
SMALL
USER_CHARGES
@<TRIPOS>ATOM
1	  N4	1.969	54.441	-85.635	N.pl3	1	RES1	0.000	
2	  N5	1.746	51.787	-82.113	N.2	1	RES1	0.000	
3	  N6	1.976	50.072	-78.854	N.pl3	1	RES1	0.000	
4	  O8	2.825	53.741	-82.853	O.2	1	RES1	0.000	
5	  O9	3.652	49.663	-77.395	O.3	1	RES1	0.000	
6	 O10	0.202	50.443	-80.210	O.2	1	RES1	0.000	
7	 O11	0.438	49.819	-82.229	O.2	1	RES1	0.000	
8	 C23	1.319	53.198	-85.439	C.2	1	RES1	0.000	
9	 C24	0.507	52.679	-86.474	C.2	1	RES1	0.000	
10	 C25	-0.208	51.500	-86.292	C.2	1	RES1	0.000	
11	 C26	-0.114	50.781	-85.079	C.2	1	RES1	0.000	
12	 C27	0.668	51.349	-84.065	C.2	1	RES1	0.000	
13	 C28	1.336	52.512	-84.237	C.2	1	RES1	0.000	
14	 C29	2.085	52.773	-83.004	C.2	1	RES1	0.000	
15	 C30	2.261	51.650	-80.734	C.3	1	RES1	0.000	
16	 C31	3.732	51.237	-80.663	C.3	1	RES1	0.000	
17	 C32	4.170	51.187	-79.214	C.3	1	RES1	0.000	
18	 C33	3.273	50.233	-78.423	C.3	1	RES1	0.000	
19	 C34	1.373	50.672	-79.949	C.2	1	RES1	0.000	
20	 C35	0.914	50.855	-82.702	C.2	1	RES1	0.000	
@<TRIPOS>BOND
1 6 19 2
2 7 20 2
3 1 8 1
4 8 9 ar
5 8 13 ar
6 9 10 ar
7 10 11 ar
8 11 12 ar
9 12 13 ar
10 12 20 ar
11 13 14 ar
12 2 14 ar
13 4 14 2
14 2 15 1
15 15 16 1
16 15 19 1
17 16 17 1
18 17 18 1
19 3 18 1
20 5 18 1
21 3 19 1
22 2 20 ar
@<TRIPOS>SUBSTRUCTURE
1	RES1	1	GROUP	1 ****	RES
