# created with PyMOL 2.5.2
@<TRIPOS>MOLECULE
ALK_6H0G_E3ligase
20 22 1                 
SMALL
USER_CHARGES
@<TRIPOS>ATOM
1	  O3	2.729	53.782	-82.786	O.2	1	RES1	0.000	
2	  N4	1.954	54.476	-85.592	N.pl3	1	RES1	0.000	
3	  O4	3.762	49.657	-77.482	O.2	1	RES1	0.000	
4	  N5	1.680	51.805	-82.081	N.2	1	RES1	0.000	
5	  O5	0.160	50.503	-80.106	O.2	1	RES1	0.000	
6	  N6	2.013	50.090	-78.823	N.pl3	1	RES1	0.000	
7	  O6	0.450	49.784	-82.281	O.2	1	RES1	0.000	
8	 C12	1.328	53.209	-85.433	C.2	1	RES1	0.000	
9	 C13	0.577	52.660	-86.472	C.2	1	RES1	0.000	
10	 C14	-0.107	51.461	-86.311	C.2	1	RES1	0.000	
11	 C15	-0.068	50.739	-85.106	C.2	1	RES1	0.000	
12	 C16	0.675	51.325	-84.093	C.2	1	RES1	0.000	
13	 C17	1.355	52.515	-84.238	C.2	1	RES1	0.000	
14	 C18	2.008	52.802	-82.969	C.2	1	RES1	0.000	
15	 C19	2.192	51.642	-80.734	C.3	1	RES1	0.000	
16	 C20	3.683	51.220	-80.715	C.3	1	RES1	0.000	
17	 C21	4.174	51.155	-79.286	C.3	1	RES1	0.000	
18	 C22	3.314	50.236	-78.421	C.2	1	RES1	0.000	
19	 C23	1.354	50.709	-79.903	C.2	1	RES1	0.000	
20	 C24	0.891	50.824	-82.736	C.2	1	RES1	0.000	
@<TRIPOS>BOND
1 2 8 1
2 8 9 ar
3 8 13 ar
4 9 10 ar
5 10 11 ar
6 11 12 ar
7 12 13 ar
8 12 20 ar
9 13 14 ar
10 1 14 2
11 4 14 ar
12 4 15 1
13 15 16 1
14 15 19 1
15 16 17 1
16 17 18 1
17 3 18 2
18 6 18 1
19 5 19 2
20 6 19 1
21 4 20 ar
22 7 20 2
@<TRIPOS>SUBSTRUCTURE
1	RES1	1	GROUP	1 ****	RES
