# created with PyMOL 2.5.2
@<TRIPOS>MOLECULE
ALK_6H0G_E3ligase
20 22 1                 
SMALL
USER_CHARGES
@<TRIPOS>ATOM
1	  O3	2.784	53.752	-82.850	O.2	1	RES1	0.000	
2	  N4	1.967	54.473	-85.582	N.pl3	1	RES1	0.000	
3	  O4	3.675	49.669	-77.403	O.3	1	RES1	0.000	
4	  N5	1.721	51.779	-82.107	N.2	1	RES1	0.000	
5	  O5	0.195	50.469	-80.172	O.2	1	RES1	0.000	
6	  N6	1.996	50.086	-78.853	N.pl3	1	RES1	0.000	
7	  O6	0.434	49.815	-82.254	O.2	1	RES1	0.000	
8	 C12	1.336	53.209	-85.435	C.2	1	RES1	0.000	
9	 C13	0.535	52.668	-86.463	C.2	1	RES1	0.000	
10	 C14	-0.176	51.465	-86.289	C.2	1	RES1	0.000	
11	 C15	-0.117	50.764	-85.079	C.2	1	RES1	0.000	
12	 C16	0.666	51.335	-84.090	C.2	1	RES1	0.000	
13	 C17	1.360	52.492	-84.242	C.2	1	RES1	0.000	
14	 C18	2.059	52.793	-83.001	C.2	1	RES1	0.000	
15	 C19	2.232	51.636	-80.752	C.3	1	RES1	0.000	
16	 C20	3.710	51.233	-80.668	C.3	1	RES1	0.000	
17	 C21	4.157	51.197	-79.245	C.3	1	RES1	0.000	
18	 C22	3.301	50.223	-78.431	C.3	1	RES1	0.000	
19	 C23	1.379	50.672	-79.951	C.2	1	RES1	0.000	
20	 C24	0.912	50.862	-82.698	C.2	1	RES1	0.000	
@<TRIPOS>BOND
1 2 8 1
2 8 9 ar
3 8 13 ar
4 9 10 ar
5 10 11 ar
6 11 12 ar
7 12 13 ar
8 12 20 ar
9 13 14 ar
10 1 14 2
11 4 14 ar
12 4 15 1
13 15 16 1
14 15 19 1
15 16 17 1
16 17 18 1
17 3 18 1
18 6 18 1
19 5 19 2
20 6 19 1
21 4 20 ar
22 7 20 2
@<TRIPOS>SUBSTRUCTURE
1	RES1	1	GROUP	1 ****	RES
