# created with PyMOL 2.5.2
@<TRIPOS>MOLECULE
ALK_6H0G_E3ligase
20 22 1                 
SMALL
USER_CHARGES
@<TRIPOS>ATOM
1	  O3	2.844	53.714	-82.886	O.2	1	RES1	0.000	
2	  N4	1.983	54.425	-85.601	N.pl3	1	RES1	0.000	
3	  O4	3.644	49.679	-77.387	O.3	1	RES1	0.000	
4	  N5	1.762	51.766	-82.138	N.2	1	RES1	0.000	
5	  O5	0.232	50.429	-80.270	O.2	1	RES1	0.000	
6	  N6	1.985	50.071	-78.866	N.pl3	1	RES1	0.000	
7	  O6	0.422	49.839	-82.232	O.2	1	RES1	0.000	
8	 C13	1.332	53.208	-85.448	C.2	1	RES1	0.000	
9	 C14	0.501	52.697	-86.443	C.2	1	RES1	0.000	
10	 C15	-0.222	51.493	-86.267	C.2	1	RES1	0.000	
11	 C16	-0.173	50.797	-85.051	C.2	1	RES1	0.000	
12	 C17	0.648	51.337	-84.055	C.2	1	RES1	0.000	
13	 C18	1.369	52.486	-84.252	C.2	1	RES1	0.000	
14	 C19	2.094	52.773	-83.011	C.2	1	RES1	0.000	
15	 C20	2.276	51.641	-80.760	C.3	1	RES1	0.000	
16	 C21	3.731	51.271	-80.642	C.3	1	RES1	0.000	
17	 C22	4.128	51.213	-79.161	C.3	1	RES1	0.000	
18	 C23	3.262	50.259	-78.388	C.3	1	RES1	0.000	
19	 C24	1.397	50.637	-79.994	C.2	1	RES1	0.000	
20	 C25	0.910	50.860	-82.715	C.2	1	RES1	0.000	
@<TRIPOS>BOND
1 2 8 1
2 8 9 ar
3 8 13 ar
4 9 10 ar
5 10 11 ar
6 11 12 ar
7 12 13 ar
8 12 20 ar
9 13 14 ar
10 1 14 2
11 4 14 ar
12 4 15 1
13 15 16 1
14 15 19 1
15 16 17 1
16 17 18 1
17 3 18 1
18 6 18 1
19 5 19 2
20 6 19 1
21 4 20 ar
22 7 20 2
@<TRIPOS>SUBSTRUCTURE
1	RES1	1	GROUP	1 ****	RES
