# created with PyMOL 2.5.2
@<TRIPOS>MOLECULE
ALK_6H0G_E3ligase
20 22 1                 
SMALL
USER_CHARGES
@<TRIPOS>ATOM
1	  O3	2.788	53.758	-82.846	O.2	1	RES1	0.000	
2	  N4	1.968	54.457	-85.605	N.pl3	1	RES1	0.000	
3	  O4	3.698	49.664	-77.420	O.2	1	RES1	0.000	
4	  N5	1.736	51.797	-82.096	N.2	1	RES1	0.000	
5	  O5	0.207	50.470	-80.206	O.2	1	RES1	0.000	
6	  N6	1.964	50.063	-78.871	N.pl3	1	RES1	0.000	
7	  O6	0.450	49.821	-82.239	O.2	1	RES1	0.000	
8	 C14	1.329	53.206	-85.461	C.2	1	RES1	0.000	
9	 C15	0.506	52.676	-86.473	C.2	1	RES1	0.000	
10	 C16	-0.172	51.469	-86.290	C.2	1	RES1	0.000	
11	 C17	-0.091	50.776	-85.054	C.2	1	RES1	0.000	
12	 C18	0.661	51.332	-84.058	C.2	1	RES1	0.000	
13	 C19	1.350	52.504	-84.249	C.2	1	RES1	0.000	
14	 C20	2.067	52.788	-82.982	C.2	1	RES1	0.000	
15	 C21	2.238	51.656	-80.740	C.3	1	RES1	0.000	
16	 C22	3.717	51.252	-80.690	C.3	1	RES1	0.000	
17	 C23	4.160	51.162	-79.215	C.3	1	RES1	0.000	
18	 C24	3.268	50.216	-78.426	C.2	1	RES1	0.000	
19	 C25	1.380	50.680	-79.945	C.2	1	RES1	0.000	
20	 C26	0.902	50.847	-82.700	C.2	1	RES1	0.000	
@<TRIPOS>BOND
1 2 8 1
2 8 9 ar
3 8 13 ar
4 9 10 ar
5 10 11 ar
6 11 12 ar
7 12 13 ar
8 12 20 ar
9 13 14 ar
10 1 14 2
11 4 14 ar
12 4 15 1
13 15 16 1
14 15 19 1
15 16 17 1
16 17 18 1
17 3 18 2
18 6 18 1
19 5 19 2
20 6 19 1
21 4 20 ar
22 7 20 2
@<TRIPOS>SUBSTRUCTURE
1	RES1	1	GROUP	1 ****	RES
