# created with PyMOL 2.5.2
@<TRIPOS>MOLECULE
BRD4_7BQU_E3ligase
19 21 1                 
SMALL
USER_CHARGES
@<TRIPOS>ATOM
1	  O2	27.394	17.220	11.936	O.2	1	RES1	0.000	
2	  O3	26.338	20.276	17.907	O.2	1	RES1	0.000	
3	  N4	25.437	17.690	13.149	N.2	1	RES1	0.000	
4	  O4	23.745	19.613	14.244	O.2	1	RES1	0.000	
5	  N5	25.067	19.901	16.072	N.pl3	1	RES1	0.000	
6	  O5	23.125	17.698	13.631	O.2	1	RES1	0.000	
7	 C18	25.543	15.495	10.224	C.2	1	RES1	0.000	
8	 C19	24.454	14.842	9.662	C.2	1	RES1	0.000	
9	 C20	23.166	14.970	10.169	C.2	1	RES1	0.000	
10	 C21	22.921	15.799	11.319	C.2	1	RES1	0.000	
11	 C22	24.028	16.450	11.843	C.2	1	RES1	0.000	
12	 C23	25.295	16.310	11.369	C.2	1	RES1	0.000	
13	 C24	26.213	17.106	12.155	C.2	1	RES1	0.000	
14	 C25	25.958	18.610	14.161	C.3	1	RES1	0.000	
15	 C26	26.840	17.973	15.191	C.3	1	RES1	0.000	
16	 C27	27.357	19.000	16.176	C.3	1	RES1	0.000	
17	 C28	26.210	19.772	16.787	C.2	1	RES1	0.000	
18	 C29	24.804	19.395	14.824	C.2	1	RES1	0.000	
19	 C30	24.099	17.334	13.019	C.2	1	RES1	0.000	
@<TRIPOS>BOND
1 1 13 2
2 7 8 ar
3 7 12 ar
4 8 9 ar
5 9 10 ar
6 10 11 ar
7 11 12 ar
8 11 19 ar
9 12 13 ar
10 3 13 ar
11 3 14 1
12 14 15 1
13 14 18 1
14 15 16 1
15 16 17 1
16 2 17 2
17 5 17 1
18 4 18 2
19 5 18 1
20 3 19 ar
21 6 19 2
@<TRIPOS>SUBSTRUCTURE
1	RES1	1	GROUP	1 ****	RES
