# created with PyMOL 2.5.2
@<TRIPOS>MOLECULE
ALK_6H0G_E3ligase
20 22 1                 
SMALL
USER_CHARGES
@<TRIPOS>ATOM
1	  O3	2.800	53.770	-82.850	O.2	1	RES1	0.000	
2	  N4	1.958	54.447	-85.589	N.pl3	1	RES1	0.000	
3	  O4	3.713	49.652	-77.441	O.2	1	RES1	0.000	
4	  N5	1.722	51.817	-82.096	N.2	1	RES1	0.000	
5	  O5	0.198	50.467	-80.179	O.2	1	RES1	0.000	
6	  N6	1.981	50.066	-78.864	N.pl3	1	RES1	0.000	
7	  O6	0.452	49.821	-82.249	O.2	1	RES1	0.000	
8	 C15	1.318	53.205	-85.442	C.2	1	RES1	0.000	
9	 C16	0.546	52.670	-86.486	C.2	1	RES1	0.000	
10	 C17	-0.161	51.451	-86.287	C.2	1	RES1	0.000	
11	 C18	-0.099	50.763	-85.070	C.2	1	RES1	0.000	
12	 C19	0.654	51.322	-84.064	C.2	1	RES1	0.000	
13	 C20	1.346	52.510	-84.240	C.2	1	RES1	0.000	
14	 C21	2.059	52.806	-82.989	C.2	1	RES1	0.000	
15	 C22	2.224	51.669	-80.746	C.3	1	RES1	0.000	
16	 C23	3.690	51.253	-80.660	C.3	1	RES1	0.000	
17	 C24	4.162	51.167	-79.248	C.3	1	RES1	0.000	
18	 C25	3.273	50.212	-78.426	C.2	1	RES1	0.000	
19	 C26	1.366	50.665	-79.927	C.2	1	RES1	0.000	
20	 C27	0.927	50.858	-82.711	C.2	1	RES1	0.000	
@<TRIPOS>BOND
1 2 8 1
2 8 9 ar
3 8 13 ar
4 9 10 ar
5 10 11 ar
6 11 12 ar
7 12 13 ar
8 12 20 ar
9 13 14 ar
10 1 14 2
11 4 14 ar
12 4 15 1
13 15 16 1
14 15 19 1
15 16 17 1
16 17 18 1
17 3 18 2
18 6 18 1
19 5 19 2
20 6 19 1
21 4 20 ar
22 7 20 2
@<TRIPOS>SUBSTRUCTURE
1	RES1	1	GROUP	1 ****	RES
