# created with PyMOL 2.5.2
@<TRIPOS>MOLECULE
ALK_6H0G_E3ligase
20 22 1                 
SMALL
USER_CHARGES
@<TRIPOS>ATOM
1	  O3	2.819	53.722	-82.841	O.2	1	RES1	0.000	
2	  N4	1.996	54.452	-85.585	N.pl3	1	RES1	0.000	
3	  O4	3.680	49.718	-77.378	O.2	1	RES1	0.000	
4	  N5	1.740	51.762	-82.114	N.2	1	RES1	0.000	
5	  O5	0.206	50.460	-80.196	O.2	1	RES1	0.000	
6	  N6	1.981	50.104	-78.850	N.pl3	1	RES1	0.000	
7	  O6	0.429	49.810	-82.274	O.2	1	RES1	0.000	
8	 C16	1.328	53.206	-85.436	C.2	1	RES1	0.000	
9	 C17	0.512	52.681	-86.457	C.2	1	RES1	0.000	
10	 C18	-0.197	51.491	-86.298	C.2	1	RES1	0.000	
11	 C19	-0.130	50.788	-85.093	C.2	1	RES1	0.000	
12	 C20	0.646	51.331	-84.081	C.2	1	RES1	0.000	
13	 C21	1.350	52.514	-84.222	C.2	1	RES1	0.000	
14	 C22	2.069	52.762	-82.988	C.2	1	RES1	0.000	
15	 C23	2.256	51.625	-80.756	C.3	1	RES1	0.000	
16	 C24	3.719	51.236	-80.677	C.3	1	RES1	0.000	
17	 C25	4.154	51.174	-79.226	C.3	1	RES1	0.000	
18	 C26	3.287	50.257	-78.429	C.2	1	RES1	0.000	
19	 C27	1.369	50.659	-79.947	C.2	1	RES1	0.000	
20	 C28	0.911	50.841	-82.719	C.2	1	RES1	0.000	
@<TRIPOS>BOND
1 2 8 1
2 8 9 ar
3 8 13 ar
4 9 10 ar
5 10 11 ar
6 11 12 ar
7 12 13 ar
8 12 20 ar
9 13 14 ar
10 1 14 2
11 4 14 ar
12 4 15 1
13 15 16 1
14 15 19 1
15 16 17 1
16 17 18 1
17 3 18 2
18 6 18 1
19 5 19 2
20 6 19 1
21 4 20 ar
22 7 20 2
@<TRIPOS>SUBSTRUCTURE
1	RES1	1	GROUP	1 ****	RES
