# created with PyMOL 2.5.2
@<TRIPOS>MOLECULE
ALK_6H0G_E3ligase
20 22 1                 
SMALL
USER_CHARGES
@<TRIPOS>ATOM
1	  O3	2.802	53.784	-82.855	O.2	1	RES1	0.000	
2	  N4	1.979	54.447	-85.628	N.pl3	1	RES1	0.000	
3	  O4	3.685	49.644	-77.448	O.3	1	RES1	0.000	
4	  N5	1.732	51.805	-82.096	N.2	1	RES1	0.000	
5	  O5	0.198	50.466	-80.202	O.2	1	RES1	0.000	
6	  N6	1.983	50.067	-78.872	N.pl3	1	RES1	0.000	
7	  O6	0.465	49.810	-82.250	O.2	1	RES1	0.000	
8	 C17	1.327	53.209	-85.439	C.2	1	RES1	0.000	
9	 C18	0.516	52.670	-86.442	C.2	1	RES1	0.000	
10	 C19	-0.166	51.455	-86.265	C.2	1	RES1	0.000	
11	 C20	-0.107	50.778	-85.079	C.2	1	RES1	0.000	
12	 C21	0.659	51.314	-84.070	C.2	1	RES1	0.000	
13	 C22	1.353	52.507	-84.229	C.2	1	RES1	0.000	
14	 C23	2.063	52.817	-82.993	C.2	1	RES1	0.000	
15	 C24	2.232	51.655	-80.727	C.3	1	RES1	0.000	
16	 C25	3.697	51.263	-80.664	C.3	1	RES1	0.000	
17	 C26	4.151	51.172	-79.220	C.3	1	RES1	0.000	
18	 C27	3.274	50.216	-78.444	C.3	1	RES1	0.000	
19	 C28	1.375	50.661	-79.959	C.2	1	RES1	0.000	
20	 C29	0.905	50.852	-82.683	C.2	1	RES1	0.000	
@<TRIPOS>BOND
1 2 8 1
2 8 9 ar
3 8 13 ar
4 9 10 ar
5 10 11 ar
6 11 12 ar
7 12 13 ar
8 12 20 ar
9 13 14 ar
10 1 14 2
11 4 14 ar
12 4 15 1
13 15 16 1
14 15 19 1
15 16 17 1
16 17 18 1
17 3 18 1
18 6 18 1
19 5 19 2
20 6 19 1
21 4 20 ar
22 7 20 2
@<TRIPOS>SUBSTRUCTURE
1	RES1	1	GROUP	1 ****	RES
