# created with PyMOL 2.5.2
@<TRIPOS>MOLECULE
EGFR_6H0G_E3ligase
20 22 1                 
SMALL
USER_CHARGES
@<TRIPOS>ATOM
1	  O4	2.812	53.749	-82.862	O.2	1	RES1	0.000	
2	  O5	3.655	49.668	-77.419	O.3	1	RES1	0.000	
3	  O6	0.219	50.420	-80.207	O.2	1	RES1	0.000	
4	  N7	1.980	54.449	-85.619	N.pl3	1	RES1	0.000	
5	  O7	0.435	49.827	-82.225	O.2	1	RES1	0.000	
6	  N8	1.740	51.799	-82.114	N.2	1	RES1	0.000	
7	  N9	1.969	50.065	-78.880	N.pl3	1	RES1	0.000	
8	 C32	1.332	53.198	-85.429	C.2	1	RES1	0.000	
9	 C33	0.524	52.681	-86.453	C.2	1	RES1	0.000	
10	 C34	-0.203	51.466	-86.284	C.2	1	RES1	0.000	
11	 C35	-0.124	50.779	-85.068	C.2	1	RES1	0.000	
12	 C36	0.663	51.333	-84.048	C.2	1	RES1	0.000	
13	 C37	1.355	52.495	-84.238	C.2	1	RES1	0.000	
14	 C38	2.076	52.807	-83.024	C.2	1	RES1	0.000	
15	 C39	2.250	51.660	-80.739	C.3	1	RES1	0.000	
16	 C40	3.716	51.258	-80.657	C.3	1	RES1	0.000	
17	 C41	4.141	51.176	-79.220	C.3	1	RES1	0.000	
18	 C42	3.279	50.229	-78.424	C.3	1	RES1	0.000	
19	 C43	1.381	50.659	-79.969	C.2	1	RES1	0.000	
20	 C44	0.925	50.874	-82.687	C.2	1	RES1	0.000	
@<TRIPOS>BOND
1 4 8 1
2 8 9 ar
3 8 13 ar
4 9 10 ar
5 10 11 ar
6 11 12 ar
7 12 13 ar
8 12 20 ar
9 13 14 ar
10 1 14 2
11 6 14 ar
12 6 15 1
13 15 16 1
14 15 19 1
15 16 17 1
16 17 18 1
17 2 18 1
18 7 18 1
19 3 19 2
20 7 19 1
21 5 20 2
22 6 20 ar
@<TRIPOS>SUBSTRUCTURE
1	RES1	1	GROUP	1 ****	RES
