# created with PyMOL 2.5.2
@<TRIPOS>MOLECULE
EGFR_6H0G_E3ligase
20 22 1                 
SMALL
USER_CHARGES
@<TRIPOS>ATOM
1	  O4	2.836	53.732	-82.851	O.2	1	RES1	0.000	
2	  O5	3.668	49.704	-77.388	O.2	1	RES1	0.000	
3	  O6	0.215	50.408	-80.202	O.2	1	RES1	0.000	
4	  N7	1.995	54.441	-85.602	N.pl3	1	RES1	0.000	
5	  O7	0.437	49.833	-82.257	O.2	1	RES1	0.000	
6	  N8	1.738	51.770	-82.100	N.2	1	RES1	0.000	
7	  N9	1.993	50.051	-78.864	N.pl3	1	RES1	0.000	
8	 C35	1.340	53.205	-85.461	C.2	1	RES1	0.000	
9	 C36	0.504	52.683	-86.466	C.2	1	RES1	0.000	
10	 C37	-0.203	51.463	-86.295	C.2	1	RES1	0.000	
11	 C38	-0.153	50.791	-85.075	C.2	1	RES1	0.000	
12	 C39	0.665	51.337	-84.043	C.2	1	RES1	0.000	
13	 C40	1.361	52.515	-84.242	C.2	1	RES1	0.000	
14	 C41	2.084	52.791	-83.006	C.2	1	RES1	0.000	
15	 C42	2.242	51.640	-80.760	C.3	1	RES1	0.000	
16	 C43	3.701	51.242	-80.661	C.3	1	RES1	0.000	
17	 C44	4.143	51.205	-79.216	C.3	1	RES1	0.000	
18	 C45	3.278	50.255	-78.404	C.2	1	RES1	0.000	
19	 C46	1.382	50.650	-79.962	C.2	1	RES1	0.000	
20	 C47	0.899	50.874	-82.711	C.2	1	RES1	0.000	
@<TRIPOS>BOND
1 1 14 2
2 4 8 1
3 8 9 ar
4 8 13 ar
5 9 10 ar
6 10 11 ar
7 11 12 ar
8 12 13 ar
9 12 20 ar
10 13 14 ar
11 6 14 ar
12 6 15 1
13 15 16 1
14 15 19 1
15 16 17 1
16 17 18 1
17 2 18 2
18 7 18 1
19 3 19 2
20 7 19 1
21 5 20 2
22 6 20 ar
@<TRIPOS>SUBSTRUCTURE
1	RES1	1	GROUP	1 ****	RES
