# created with PyMOL 2.5.2
@<TRIPOS>MOLECULE
EGFR_6H0G_E3ligase
20 22 1                 
SMALL
USER_CHARGES
@<TRIPOS>ATOM
1	  O4	2.827	53.742	-82.859	O.2	1	RES1	0.000	
2	  O5	3.688	49.663	-77.397	O.3	1	RES1	0.000	
3	  O6	0.203	50.422	-80.202	O.2	1	RES1	0.000	
4	  N7	1.981	54.449	-85.602	N.pl3	1	RES1	0.000	
5	  O7	0.442	49.811	-82.231	O.2	1	RES1	0.000	
6	  N8	1.723	51.801	-82.117	N.2	1	RES1	0.000	
7	  N9	2.003	50.060	-78.880	N.pl3	1	RES1	0.000	
8	 C36	1.339	53.197	-85.452	C.2	1	RES1	0.000	
9	 C37	0.515	52.663	-86.468	C.2	1	RES1	0.000	
10	 C38	-0.182	51.472	-86.265	C.2	1	RES1	0.000	
11	 C39	-0.109	50.776	-85.057	C.2	1	RES1	0.000	
12	 C40	0.655	51.343	-84.053	C.2	1	RES1	0.000	
13	 C41	1.359	52.509	-84.247	C.2	1	RES1	0.000	
14	 C42	2.057	52.812	-83.020	C.2	1	RES1	0.000	
15	 C43	2.235	51.663	-80.732	C.3	1	RES1	0.000	
16	 C44	3.711	51.268	-80.675	C.3	1	RES1	0.000	
17	 C45	4.146	51.190	-79.215	C.3	1	RES1	0.000	
18	 C46	3.274	50.234	-78.421	C.3	1	RES1	0.000	
19	 C47	1.358	50.652	-79.954	C.2	1	RES1	0.000	
20	 C48	0.900	50.867	-82.719	C.2	1	RES1	0.000	
@<TRIPOS>BOND
1 1 14 2
2 4 8 1
3 8 9 ar
4 8 13 ar
5 9 10 ar
6 10 11 ar
7 11 12 ar
8 12 13 ar
9 12 20 ar
10 13 14 ar
11 6 14 ar
12 6 15 1
13 15 16 1
14 15 19 1
15 16 17 1
16 17 18 1
17 2 18 1
18 7 18 1
19 3 19 2
20 7 19 1
21 5 20 2
22 6 20 ar
@<TRIPOS>SUBSTRUCTURE
1	RES1	1	GROUP	1 ****	RES
