# created with PyMOL 2.5.2
@<TRIPOS>MOLECULE
EGFR_6H0G_E3ligase
20 22 1                 
SMALL
USER_CHARGES
@<TRIPOS>ATOM
1	  O4	2.791	53.757	-82.821	O.2	1	RES1	0.000	
2	  O5	3.700	49.703	-77.435	O.2	1	RES1	0.000	
3	  O6	0.178	50.442	-80.172	O.2	1	RES1	0.000	
4	  N7	1.986	54.433	-85.584	N.pl3	1	RES1	0.000	
5	  O7	0.434	49.808	-82.262	O.2	1	RES1	0.000	
6	  N8	1.703	51.785	-82.113	N.2	1	RES1	0.000	
7	  N9	1.995	50.085	-78.864	N.pl3	1	RES1	0.000	
8	 C37	1.344	53.221	-85.456	C.2	1	RES1	0.000	
9	 C38	0.540	52.679	-86.466	C.2	1	RES1	0.000	
10	 C39	-0.172	51.474	-86.299	C.2	1	RES1	0.000	
11	 C40	-0.101	50.765	-85.077	C.2	1	RES1	0.000	
12	 C41	0.655	51.329	-84.085	C.2	1	RES1	0.000	
13	 C42	1.356	52.513	-84.236	C.2	1	RES1	0.000	
14	 C43	2.044	52.797	-82.959	C.2	1	RES1	0.000	
15	 C44	2.216	51.635	-80.742	C.3	1	RES1	0.000	
16	 C45	3.717	51.241	-80.691	C.3	1	RES1	0.000	
17	 C46	4.162	51.167	-79.232	C.3	1	RES1	0.000	
18	 C47	3.303	50.247	-78.434	C.2	1	RES1	0.000	
19	 C48	1.377	50.664	-79.936	C.2	1	RES1	0.000	
20	 C49	0.900	50.849	-82.704	C.2	1	RES1	0.000	
@<TRIPOS>BOND
1 1 14 2
2 4 8 1
3 8 9 ar
4 8 13 ar
5 9 10 ar
6 10 11 ar
7 11 12 ar
8 12 13 ar
9 12 20 ar
10 13 14 ar
11 6 14 ar
12 6 15 1
13 15 16 1
14 15 19 1
15 16 17 1
16 17 18 1
17 2 18 2
18 7 18 1
19 3 19 2
20 7 19 1
21 5 20 2
22 6 20 ar
@<TRIPOS>SUBSTRUCTURE
1	RES1	1	GROUP	1 ****	RES
