# created with PyMOL 2.5.2
@<TRIPOS>MOLECULE
EGFR_6H0G_E3ligase
20 22 1                 
SMALL
USER_CHARGES
@<TRIPOS>ATOM
1	  O4	2.819	53.738	-82.834	O.2	1	RES1	0.000	
2	  O5	3.679	49.682	-77.416	O.2	1	RES1	0.000	
3	  O6	0.192	50.488	-80.170	O.2	1	RES1	0.000	
4	  N7	1.960	54.455	-85.585	N.pl3	1	RES1	0.000	
5	  O7	0.451	49.811	-82.267	O.2	1	RES1	0.000	
6	  N8	1.734	51.782	-82.111	N.2	1	RES1	0.000	
7	  N9	1.993	50.084	-78.855	N.pl3	1	RES1	0.000	
8	 C38	1.332	53.217	-85.438	C.2	1	RES1	0.000	
9	 C39	0.523	52.681	-86.470	C.2	1	RES1	0.000	
10	 C40	-0.184	51.471	-86.279	C.2	1	RES1	0.000	
11	 C41	-0.115	50.764	-85.078	C.2	1	RES1	0.000	
12	 C42	0.658	51.319	-84.079	C.2	1	RES1	0.000	
13	 C43	1.348	52.513	-84.249	C.2	1	RES1	0.000	
14	 C44	2.062	52.784	-83.002	C.2	1	RES1	0.000	
15	 C45	2.251	51.641	-80.757	C.3	1	RES1	0.000	
16	 C46	3.709	51.245	-80.696	C.3	1	RES1	0.000	
17	 C47	4.164	51.161	-79.222	C.3	1	RES1	0.000	
18	 C48	3.269	50.228	-78.410	C.2	1	RES1	0.000	
19	 C49	1.365	50.688	-79.942	C.2	1	RES1	0.000	
20	 C50	0.914	50.843	-82.706	C.2	1	RES1	0.000	
@<TRIPOS>BOND
1 1 14 2
2 4 8 1
3 8 9 ar
4 8 13 ar
5 9 10 ar
6 10 11 ar
7 11 12 ar
8 12 13 ar
9 12 20 ar
10 13 14 ar
11 6 14 ar
12 6 15 1
13 15 16 1
14 15 19 1
15 16 17 1
16 17 18 1
17 2 18 2
18 7 18 1
19 3 19 2
20 7 19 1
21 5 20 2
22 6 20 ar
@<TRIPOS>SUBSTRUCTURE
1	RES1	1	GROUP	1 ****	RES
