# created with PyMOL 2.5.2
@<TRIPOS>MOLECULE
EGFR_6H0G_E3ligase
20 22 1                 
SMALL
USER_CHARGES
@<TRIPOS>ATOM
1	  O6	2.787	53.770	-82.835	O.2	1	RES1	0.000	
2	  N7	1.968	54.435	-85.598	N.pl3	1	RES1	0.000	
3	  O7	3.715	49.692	-77.424	O.2	1	RES1	0.000	
4	  N8	1.702	51.794	-82.099	N.2	1	RES1	0.000	
5	  O8	0.193	50.445	-80.171	O.2	1	RES1	0.000	
6	  N9	2.001	50.042	-78.858	N.pl3	1	RES1	0.000	
7	  O9	0.431	49.836	-82.257	O.2	1	RES1	0.000	
8	 C33	1.332	53.201	-85.464	C.2	1	RES1	0.000	
9	 C34	0.539	52.676	-86.479	C.2	1	RES1	0.000	
10	 C35	-0.155	51.479	-86.295	C.2	1	RES1	0.000	
11	 C36	-0.110	50.763	-85.084	C.2	1	RES1	0.000	
12	 C37	0.655	51.331	-84.070	C.2	1	RES1	0.000	
13	 C38	1.355	52.494	-84.237	C.2	1	RES1	0.000	
14	 C39	2.051	52.818	-83.003	C.2	1	RES1	0.000	
15	 C40	2.220	51.647	-80.721	C.3	1	RES1	0.000	
16	 C41	3.701	51.236	-80.683	C.3	1	RES1	0.000	
17	 C42	4.169	51.198	-79.224	C.3	1	RES1	0.000	
18	 C43	3.274	50.213	-78.418	C.2	1	RES1	0.000	
19	 C44	1.387	50.670	-79.927	C.2	1	RES1	0.000	
20	 C45	0.911	50.852	-82.719	C.2	1	RES1	0.000	
@<TRIPOS>BOND
1 2 8 1
2 8 9 ar
3 8 13 ar
4 9 10 ar
5 10 11 ar
6 11 12 ar
7 12 13 ar
8 12 20 ar
9 13 14 ar
10 1 14 2
11 4 14 ar
12 4 15 1
13 15 16 1
14 15 19 1
15 16 17 1
16 17 18 1
17 3 18 2
18 6 18 1
19 5 19 2
20 6 19 1
21 4 20 ar
22 7 20 2
@<TRIPOS>SUBSTRUCTURE
1	RES1	1	GROUP	1 ****	RES
