# created with PyMOL 2.5.2
@<TRIPOS>MOLECULE
EGFR_6H0G_E3ligase
20 22 1                 
SMALL
USER_CHARGES
@<TRIPOS>ATOM
1	  N7	1.961	54.437	-85.615	N.pl3	1	RES1	0.000	
2	  O7	2.835	53.737	-82.858	O.2	1	RES1	0.000	
3	  N8	1.739	51.784	-82.114	N.2	1	RES1	0.000	
4	  O8	3.683	49.688	-77.397	O.2	1	RES1	0.000	
5	  N9	1.987	50.088	-78.863	N.pl3	1	RES1	0.000	
6	  O9	0.200	50.436	-80.219	O.2	1	RES1	0.000	
7	 O10	0.446	49.828	-82.268	O.2	1	RES1	0.000	
8	 C35	1.335	53.211	-85.457	C.2	1	RES1	0.000	
9	 C36	0.509	52.692	-86.454	C.2	1	RES1	0.000	
10	 C37	-0.192	51.484	-86.278	C.2	1	RES1	0.000	
11	 C38	-0.132	50.787	-85.066	C.2	1	RES1	0.000	
12	 C39	0.658	51.347	-84.075	C.2	1	RES1	0.000	
13	 C40	1.351	52.470	-84.237	C.2	1	RES1	0.000	
14	 C41	2.065	52.771	-83.007	C.2	1	RES1	0.000	
15	 C42	2.252	51.647	-80.746	C.3	1	RES1	0.000	
16	 C43	3.720	51.244	-80.654	C.3	1	RES1	0.000	
17	 C44	4.151	51.174	-79.205	C.3	1	RES1	0.000	
18	 C45	3.273	50.234	-78.390	C.2	1	RES1	0.000	
19	 C46	1.383	50.664	-79.957	C.2	1	RES1	0.000	
20	 C47	0.902	50.868	-82.704	C.2	1	RES1	0.000	
@<TRIPOS>BOND
1 7 20 2
2 1 8 1
3 8 9 ar
4 8 13 ar
5 9 10 ar
6 10 11 ar
7 11 12 ar
8 12 13 ar
9 12 20 ar
10 13 14 ar
11 2 14 2
12 3 14 ar
13 3 15 1
14 15 16 1
15 15 19 1
16 16 17 1
17 17 18 1
18 4 18 2
19 5 18 1
20 5 19 1
21 6 19 2
22 3 20 ar
@<TRIPOS>SUBSTRUCTURE
1	RES1	1	GROUP	1 ****	RES
