# created with PyMOL 2.5.2
@<TRIPOS>MOLECULE
CDK6_6H0G_E3ligase
20 22 1                 
SMALL
USER_CHARGES
@<TRIPOS>ATOM
1	  O3	2.805	53.777	-82.845	O.2	1	RES1	0.000	
2	  O4	3.709	49.670	-77.419	O.2	1	RES1	0.000	
3	  O5	0.209	50.429	-80.193	O.2	1	RES1	0.000	
4	  N6	1.971	54.464	-85.607	N.pl3	1	RES1	0.000	
5	  O6	0.439	49.854	-82.236	O.2	1	RES1	0.000	
6	  N7	1.705	51.792	-82.106	N.2	1	RES1	0.000	
7	  N8	1.989	50.067	-78.863	N.pl3	1	RES1	0.000	
8	 C21	1.335	53.199	-85.445	C.2	1	RES1	0.000	
9	 C22	0.541	52.658	-86.482	C.2	1	RES1	0.000	
10	 C23	-0.161	51.463	-86.285	C.2	1	RES1	0.000	
11	 C24	-0.111	50.753	-85.075	C.2	1	RES1	0.000	
12	 C25	0.649	51.337	-84.063	C.2	1	RES1	0.000	
13	 C26	1.356	52.503	-84.253	C.2	1	RES1	0.000	
14	 C27	2.049	52.826	-82.990	C.2	1	RES1	0.000	
15	 C28	2.219	51.646	-80.719	C.3	1	RES1	0.000	
16	 C29	3.693	51.260	-80.678	C.3	1	RES1	0.000	
17	 C30	4.154	51.186	-79.233	C.3	1	RES1	0.000	
18	 C31	3.283	50.216	-78.419	C.2	1	RES1	0.000	
19	 C32	1.382	50.630	-79.960	C.2	1	RES1	0.000	
20	 C33	0.909	50.863	-82.696	C.2	1	RES1	0.000	
@<TRIPOS>BOND
1 4 8 1
2 8 9 ar
3 8 13 ar
4 9 10 ar
5 10 11 ar
6 11 12 ar
7 12 13 ar
8 12 20 ar
9 13 14 ar
10 1 14 2
11 6 14 ar
12 6 15 1
13 15 16 1
14 15 19 1
15 16 17 1
16 17 18 1
17 2 18 2
18 7 18 1
19 3 19 2
20 7 19 1
21 5 20 2
22 6 20 ar
@<TRIPOS>SUBSTRUCTURE
1	RES1	1	GROUP	1 ****	RES
