# created with PyMOL 2.5.2
@<TRIPOS>MOLECULE
EGFR_6H0G_E3ligase
20 22 1                 
SMALL
USER_CHARGES
@<TRIPOS>ATOM
1	  N7	1.992	54.451	-85.602	N.pl3	1	RES1	0.000	
2	  N8	1.723	51.776	-82.104	N.2	1	RES1	0.000	
3	  N9	2.000	50.054	-78.879	N.pl3	1	RES1	0.000	
4	  O9	2.814	53.715	-82.836	O.2	1	RES1	0.000	
5	 O10	3.699	49.701	-77.423	O.2	1	RES1	0.000	
6	 O11	0.221	50.405	-80.216	O.2	1	RES1	0.000	
7	 O12	0.426	49.835	-82.239	O.2	1	RES1	0.000	
8	 C39	1.340	53.200	-85.444	C.2	1	RES1	0.000	
9	 C40	0.538	52.667	-86.474	C.2	1	RES1	0.000	
10	 C41	-0.188	51.493	-86.298	C.2	1	RES1	0.000	
11	 C42	-0.134	50.794	-85.087	C.2	1	RES1	0.000	
12	 C43	0.651	51.338	-84.065	C.2	1	RES1	0.000	
13	 C44	1.355	52.495	-84.253	C.2	1	RES1	0.000	
14	 C45	2.037	52.797	-82.996	C.2	1	RES1	0.000	
15	 C46	2.233	51.634	-80.724	C.3	1	RES1	0.000	
16	 C47	3.720	51.262	-80.665	C.3	1	RES1	0.000	
17	 C48	4.146	51.210	-79.190	C.3	1	RES1	0.000	
18	 C49	3.283	50.250	-78.405	C.2	1	RES1	0.000	
19	 C50	1.378	50.657	-79.962	C.2	1	RES1	0.000	
20	 C51	0.890	50.858	-82.704	C.2	1	RES1	0.000	
@<TRIPOS>BOND
1 5 18 2
2 6 19 2
3 7 20 2
4 1 8 1
5 8 9 ar
6 8 13 ar
7 9 10 ar
8 10 11 ar
9 11 12 ar
10 12 13 ar
11 12 20 ar
12 13 14 ar
13 2 14 ar
14 4 14 2
15 2 15 1
16 15 16 1
17 15 19 1
18 16 17 1
19 17 18 1
20 3 18 1
21 3 19 1
22 2 20 ar
@<TRIPOS>SUBSTRUCTURE
1	RES1	1	GROUP	1 ****	RES
