# created with PyMOL 2.5.2
@<TRIPOS>MOLECULE
BRD4_6H0G_E3ligase
20 22 1                 
SMALL
USER_CHARGES
@<TRIPOS>ATOM
1	  O3	2.746	53.735	-82.788	O.2	1	RES1	0.000	
2	  N4	2.120	54.368	-85.600	N.pl3	1	RES1	0.000	
3	  O4	3.718	49.750	-77.397	O.2	1	RES1	0.000	
4	  N5	1.754	51.723	-82.120	N.2	1	RES1	0.000	
5	  O5	0.242	50.336	-80.231	O.2	1	RES1	0.000	
6	  N6	2.020	50.057	-78.862	N.pl3	1	RES1	0.000	
7	  O6	0.320	49.828	-82.274	O.2	1	RES1	0.000	
8	 C24	1.310	53.220	-85.422	C.2	1	RES1	0.000	
9	 C25	0.545	52.709	-86.477	C.2	1	RES1	0.000	
10	 C26	-0.193	51.495	-86.312	C.2	1	RES1	0.000	
11	 C27	-0.154	50.835	-85.088	C.2	1	RES1	0.000	
12	 C28	0.636	51.330	-84.088	C.2	1	RES1	0.000	
13	 C29	1.334	52.489	-84.235	C.2	1	RES1	0.000	
14	 C30	2.065	52.736	-82.985	C.2	1	RES1	0.000	
15	 C31	2.247	51.638	-80.741	C.3	1	RES1	0.000	
16	 C32	3.719	51.328	-80.657	C.3	1	RES1	0.000	
17	 C33	4.121	51.269	-79.188	C.3	1	RES1	0.000	
18	 C34	3.292	50.290	-78.403	C.2	1	RES1	0.000	
19	 C35	1.407	50.615	-79.964	C.2	1	RES1	0.000	
20	 C36	0.877	50.842	-82.733	C.2	1	RES1	0.000	
@<TRIPOS>BOND
1 1 14 2
2 2 8 1
3 8 9 ar
4 8 13 ar
5 9 10 ar
6 10 11 ar
7 11 12 ar
8 12 13 ar
9 12 20 ar
10 13 14 ar
11 4 14 ar
12 4 15 1
13 15 16 1
14 15 19 1
15 16 17 1
16 17 18 1
17 3 18 2
18 6 18 1
19 5 19 2
20 6 19 1
21 4 20 ar
22 7 20 2
@<TRIPOS>SUBSTRUCTURE
1	RES1	1	GROUP	1 ****	RES
