# created with PyMOL 2.5.2
@<TRIPOS>MOLECULE
BRD4_6H0G_E3ligase
20 22 1                 
SMALL
USER_CHARGES
@<TRIPOS>ATOM
1	  O3	2.800	53.760	-82.848	O.2	1	RES1	0.000	
2	  N4	1.959	54.442	-85.609	N.pl3	1	RES1	0.000	
3	  O4	3.695	49.646	-77.422	O.3	1	RES1	0.000	
4	  N5	1.722	51.805	-82.102	N.2	1	RES1	0.000	
5	  O5	0.229	50.419	-80.222	O.2	1	RES1	0.000	
6	  N6	1.999	50.044	-78.892	N.pl3	1	RES1	0.000	
7	  O6	0.423	49.830	-82.234	O.2	1	RES1	0.000	
8	 C26	1.348	53.180	-85.462	C.2	1	RES1	0.000	
9	 C27	0.539	52.654	-86.461	C.2	1	RES1	0.000	
10	 C28	-0.177	51.463	-86.276	C.2	1	RES1	0.000	
11	 C29	-0.104	50.769	-85.073	C.2	1	RES1	0.000	
12	 C30	0.659	51.357	-84.058	C.2	1	RES1	0.000	
13	 C31	1.350	52.511	-84.235	C.2	1	RES1	0.000	
14	 C32	2.063	52.827	-82.993	C.2	1	RES1	0.000	
15	 C33	2.216	51.663	-80.740	C.3	1	RES1	0.000	
16	 C34	3.710	51.271	-80.671	C.3	1	RES1	0.000	
17	 C35	4.141	51.202	-79.201	C.3	1	RES1	0.000	
18	 C36	3.281	50.233	-78.425	C.3	1	RES1	0.000	
19	 C37	1.374	50.652	-79.957	C.2	1	RES1	0.000	
20	 C38	0.896	50.866	-82.686	C.2	1	RES1	0.000	
@<TRIPOS>BOND
1 1 14 2
2 2 8 1
3 8 9 ar
4 8 13 ar
5 9 10 ar
6 10 11 ar
7 11 12 ar
8 12 13 ar
9 12 20 ar
10 13 14 ar
11 4 14 ar
12 4 15 1
13 15 16 1
14 15 19 1
15 16 17 1
16 17 18 1
17 3 18 1
18 6 18 1
19 5 19 2
20 6 19 1
21 4 20 ar
22 7 20 2
@<TRIPOS>SUBSTRUCTURE
1	RES1	1	GROUP	1 ****	RES
