# created with PyMOL 2.5.2
@<TRIPOS>MOLECULE
BRD4_6H0G_E3ligase
20 22 1                 
SMALL
USER_CHARGES
@<TRIPOS>ATOM
1	  O4	2.828	53.742	-82.888	O.2	1	RES1	0.000	
2	  N5	1.962	54.440	-85.642	N.pl3	1	RES1	0.000	
3	  O5	3.643	49.630	-77.414	O.3	1	RES1	0.000	
4	  N6	1.766	51.815	-82.114	N.2	1	RES1	0.000	
5	  O6	0.218	50.426	-80.273	O.2	1	RES1	0.000	
6	  N7	1.968	50.047	-78.906	N.pl3	1	RES1	0.000	
7	  O7	0.460	49.854	-82.208	O.2	1	RES1	0.000	
8	 C29	1.313	53.180	-85.459	C.2	1	RES1	0.000	
9	 C30	0.501	52.675	-86.451	C.2	1	RES1	0.000	
10	 C31	-0.211	51.455	-86.243	C.2	1	RES1	0.000	
11	 C32	-0.126	50.788	-85.009	C.2	1	RES1	0.000	
12	 C33	0.668	51.351	-84.055	C.2	1	RES1	0.000	
13	 C34	1.357	52.516	-84.240	C.2	1	RES1	0.000	
14	 C35	2.099	52.798	-83.018	C.2	1	RES1	0.000	
15	 C36	2.269	51.677	-80.723	C.3	1	RES1	0.000	
16	 C37	3.731	51.274	-80.642	C.3	1	RES1	0.000	
17	 C38	4.137	51.181	-79.188	C.3	1	RES1	0.000	
18	 C39	3.251	50.197	-78.424	C.3	1	RES1	0.000	
19	 C40	1.367	50.668	-79.980	C.2	1	RES1	0.000	
20	 C41	0.926	50.878	-82.687	C.2	1	RES1	0.000	
@<TRIPOS>BOND
1 2 8 1
2 8 9 ar
3 8 13 ar
4 9 10 ar
5 10 11 ar
6 11 12 ar
7 12 13 ar
8 12 20 ar
9 13 14 ar
10 1 14 2
11 4 14 ar
12 4 15 1
13 15 16 1
14 15 19 1
15 16 17 1
16 17 18 1
17 3 18 1
18 6 18 1
19 5 19 2
20 6 19 1
21 4 20 ar
22 7 20 2
@<TRIPOS>SUBSTRUCTURE
1	RES1	1	GROUP	1 ****	RES
