# created with PyMOL 2.5.2
@<TRIPOS>MOLECULE
BRD4_6H0G_E3ligase
20 22 1                 
SMALL
USER_CHARGES
@<TRIPOS>ATOM
1	  O4	2.802	53.731	-82.819	O.2	1	RES1	0.000	
2	  N5	1.977	54.452	-85.585	N.pl3	1	RES1	0.000	
3	  O5	3.704	49.718	-77.411	O.2	1	RES1	0.000	
4	  N6	1.721	51.756	-82.103	N.2	1	RES1	0.000	
5	  O6	0.207	50.445	-80.191	O.2	1	RES1	0.000	
6	  N7	1.984	50.093	-78.844	N.pl3	1	RES1	0.000	
7	  O7	0.406	49.788	-82.277	O.2	1	RES1	0.000	
8	 C30	1.342	53.219	-85.453	C.2	1	RES1	0.000	
9	 C31	0.530	52.687	-86.464	C.2	1	RES1	0.000	
10	 C32	-0.190	51.492	-86.290	C.2	1	RES1	0.000	
11	 C33	-0.110	50.784	-85.095	C.2	1	RES1	0.000	
12	 C34	0.661	51.335	-84.088	C.2	1	RES1	0.000	
13	 C35	1.361	52.501	-84.235	C.2	1	RES1	0.000	
14	 C36	2.054	52.781	-82.987	C.2	1	RES1	0.000	
15	 C37	2.238	51.614	-80.745	C.3	1	RES1	0.000	
16	 C38	3.709	51.228	-80.676	C.3	1	RES1	0.000	
17	 C39	4.161	51.182	-79.218	C.3	1	RES1	0.000	
18	 C40	3.285	50.263	-78.426	C.2	1	RES1	0.000	
19	 C41	1.386	50.680	-79.951	C.2	1	RES1	0.000	
20	 C42	0.897	50.844	-82.707	C.2	1	RES1	0.000	
@<TRIPOS>BOND
1 2 8 1
2 8 9 ar
3 8 13 ar
4 9 10 ar
5 10 11 ar
6 11 12 ar
7 12 13 ar
8 12 20 ar
9 13 14 ar
10 1 14 2
11 4 14 ar
12 4 15 1
13 15 16 1
14 15 19 1
15 16 17 1
16 17 18 1
17 3 18 2
18 6 18 1
19 5 19 2
20 6 19 1
21 4 20 ar
22 7 20 2
@<TRIPOS>SUBSTRUCTURE
1	RES1	1	GROUP	1 ****	RES
