# created with PyMOL 2.5.2
@<TRIPOS>MOLECULE
BRD4_6H0G_E3ligase
20 22 1                 
SMALL
USER_CHARGES
@<TRIPOS>ATOM
1	  O4	2.789	53.743	-82.831	O.2	1	RES1	0.000	
2	  N5	1.998	54.446	-85.604	N.pl3	1	RES1	0.000	
3	  O5	3.698	49.707	-77.398	O.2	1	RES1	0.000	
4	  N6	1.710	51.770	-82.115	N.2	1	RES1	0.000	
5	  O6	0.205	50.433	-80.206	O.2	1	RES1	0.000	
6	  N7	2.002	50.056	-78.859	N.pl3	1	RES1	0.000	
7	  O7	0.410	49.847	-82.273	O.2	1	RES1	0.000	
8	 C31	1.340	53.190	-85.450	C.2	1	RES1	0.000	
9	 C32	0.530	52.681	-86.467	C.2	1	RES1	0.000	
10	 C33	-0.170	51.459	-86.298	C.2	1	RES1	0.000	
11	 C34	-0.122	50.794	-85.083	C.2	1	RES1	0.000	
12	 C35	0.664	51.322	-84.064	C.2	1	RES1	0.000	
13	 C36	1.349	52.503	-84.230	C.2	1	RES1	0.000	
14	 C37	2.041	52.806	-82.985	C.2	1	RES1	0.000	
15	 C38	2.224	51.628	-80.728	C.3	1	RES1	0.000	
16	 C39	3.732	51.257	-80.689	C.3	1	RES1	0.000	
17	 C40	4.157	51.207	-79.226	C.3	1	RES1	0.000	
18	 C41	3.289	50.233	-78.407	C.2	1	RES1	0.000	
19	 C42	1.389	50.651	-79.956	C.2	1	RES1	0.000	
20	 C43	0.889	50.860	-82.695	C.2	1	RES1	0.000	
@<TRIPOS>BOND
1 2 8 1
2 8 9 ar
3 8 13 ar
4 9 10 ar
5 10 11 ar
6 11 12 ar
7 12 13 ar
8 12 20 ar
9 13 14 ar
10 1 14 2
11 4 14 ar
12 4 15 1
13 15 16 1
14 15 19 1
15 16 17 1
16 17 18 1
17 3 18 2
18 6 18 1
19 5 19 2
20 6 19 1
21 4 20 ar
22 7 20 2
@<TRIPOS>SUBSTRUCTURE
1	RES1	1	GROUP	1 ****	RES
