# created with PyMOL 2.5.2
@<TRIPOS>MOLECULE
BRD4_6H0G_E3ligase
20 22 1                 
SMALL
USER_CHARGES
@<TRIPOS>ATOM
1	  O4	2.805	53.766	-82.869	O.2	1	RES1	0.000	
2	  N5	1.985	54.440	-85.619	N.pl3	1	RES1	0.000	
3	  O5	3.684	49.635	-77.428	O.3	1	RES1	0.000	
4	  N6	1.743	51.813	-82.106	N.2	1	RES1	0.000	
5	  O6	0.196	50.428	-80.233	O.2	1	RES1	0.000	
6	  N7	1.987	50.045	-78.882	N.pl3	1	RES1	0.000	
7	  O7	0.437	49.845	-82.219	O.2	1	RES1	0.000	
8	 C30	1.315	53.189	-85.440	C.2	1	RES1	0.000	
9	 C31	0.503	52.658	-86.468	C.2	1	RES1	0.000	
10	 C32	-0.179	51.446	-86.276	C.2	1	RES1	0.000	
11	 C33	-0.104	50.776	-85.050	C.2	1	RES1	0.000	
12	 C34	0.646	51.350	-84.062	C.2	1	RES1	0.000	
13	 C35	1.359	52.518	-84.238	C.2	1	RES1	0.000	
14	 C36	2.075	52.811	-82.997	C.2	1	RES1	0.000	
15	 C37	2.250	51.670	-80.711	C.3	1	RES1	0.000	
16	 C38	3.722	51.277	-80.660	C.3	1	RES1	0.000	
17	 C39	4.150	51.180	-79.188	C.3	1	RES1	0.000	
18	 C40	3.268	50.217	-78.432	C.3	1	RES1	0.000	
19	 C41	1.371	50.658	-79.984	C.2	1	RES1	0.000	
20	 C42	0.912	50.871	-82.705	C.2	1	RES1	0.000	
@<TRIPOS>BOND
1 2 8 1
2 8 9 ar
3 8 13 ar
4 9 10 ar
5 10 11 ar
6 11 12 ar
7 12 13 ar
8 12 20 ar
9 13 14 ar
10 1 14 2
11 4 14 ar
12 4 15 1
13 15 16 1
14 15 19 1
15 16 17 1
16 17 18 1
17 3 18 1
18 6 18 1
19 5 19 2
20 6 19 1
21 4 20 ar
22 7 20 2
@<TRIPOS>SUBSTRUCTURE
1	RES1	1	GROUP	1 ****	RES
