# created with PyMOL 2.5.2
@<TRIPOS>MOLECULE
BRD4_6H0G_E3ligase
20 22 1                 
SMALL
USER_CHARGES
@<TRIPOS>ATOM
1	  N4	1.991	54.434	-85.616	N.pl3	1	RES1	0.000	
2	  N5	1.746	51.779	-82.101	N.2	1	RES1	0.000	
3	  O5	2.826	53.734	-82.842	O.2	1	RES1	0.000	
4	  N6	1.995	50.059	-78.861	N.pl3	1	RES1	0.000	
5	  O6	3.676	49.715	-77.397	O.2	1	RES1	0.000	
6	  O7	0.215	50.431	-80.229	O.2	1	RES1	0.000	
7	  O8	0.410	49.828	-82.267	O.2	1	RES1	0.000	
8	 C34	1.331	53.197	-85.439	C.2	1	RES1	0.000	
9	 C35	0.506	52.670	-86.455	C.2	1	RES1	0.000	
10	 C36	-0.198	51.483	-86.291	C.2	1	RES1	0.000	
11	 C37	-0.123	50.803	-85.066	C.2	1	RES1	0.000	
12	 C38	0.657	51.333	-84.051	C.2	1	RES1	0.000	
13	 C39	1.369	52.495	-84.239	C.2	1	RES1	0.000	
14	 C40	2.062	52.783	-82.997	C.2	1	RES1	0.000	
15	 C41	2.252	51.640	-80.750	C.3	1	RES1	0.000	
16	 C42	3.720	51.257	-80.683	C.3	1	RES1	0.000	
17	 C43	4.143	51.201	-79.204	C.3	1	RES1	0.000	
18	 C44	3.265	50.237	-78.419	C.2	1	RES1	0.000	
19	 C45	1.377	50.640	-79.960	C.2	1	RES1	0.000	
20	 C46	0.905	50.874	-82.700	C.2	1	RES1	0.000	
@<TRIPOS>BOND
1 1 8 1
2 8 9 ar
3 8 13 ar
4 9 10 ar
5 10 11 ar
6 11 12 ar
7 12 13 ar
8 12 20 ar
9 13 14 ar
10 2 14 ar
11 3 14 2
12 2 15 1
13 15 16 1
14 15 19 1
15 16 17 1
16 17 18 1
17 4 18 1
18 5 18 2
19 4 19 1
20 6 19 2
21 2 20 ar
22 7 20 2
@<TRIPOS>SUBSTRUCTURE
1	RES1	1	GROUP	1 ****	RES
