# created with PyMOL 2.5.2
@<TRIPOS>MOLECULE
BRD4_6H0G_E3ligase
20 22 1                 
SMALL
USER_CHARGES
@<TRIPOS>ATOM
1	  N5	1.974	54.429	-85.617	N.pl3	1	RES1	0.000	
2	  O5	2.801	53.738	-82.846	O.2	1	RES1	0.000	
3	  N6	1.733	51.790	-82.114	N.2	1	RES1	0.000	
4	  O6	3.683	49.662	-77.406	O.3	1	RES1	0.000	
5	  N7	1.993	50.065	-78.866	N.pl3	1	RES1	0.000	
6	  O7	0.197	50.428	-80.240	O.2	1	RES1	0.000	
7	  O8	0.432	49.836	-82.241	O.2	1	RES1	0.000	
8	 C33	1.323	53.196	-85.449	C.2	1	RES1	0.000	
9	 C34	0.525	52.669	-86.465	C.2	1	RES1	0.000	
10	 C35	-0.197	51.482	-86.278	C.2	1	RES1	0.000	
11	 C36	-0.126	50.797	-85.077	C.2	1	RES1	0.000	
12	 C37	0.669	51.330	-84.054	C.2	1	RES1	0.000	
13	 C38	1.356	52.510	-84.251	C.2	1	RES1	0.000	
14	 C39	2.076	52.807	-83.002	C.2	1	RES1	0.000	
15	 C40	2.237	51.650	-80.744	C.3	1	RES1	0.000	
16	 C41	3.719	51.254	-80.640	C.3	1	RES1	0.000	
17	 C42	4.156	51.208	-79.201	C.3	1	RES1	0.000	
18	 C43	3.280	50.229	-78.420	C.3	1	RES1	0.000	
19	 C44	1.396	50.661	-79.954	C.2	1	RES1	0.000	
20	 C45	0.898	50.853	-82.702	C.2	1	RES1	0.000	
@<TRIPOS>BOND
1 1 8 1
2 8 9 ar
3 8 13 ar
4 9 10 ar
5 10 11 ar
6 11 12 ar
7 12 13 ar
8 12 20 ar
9 13 14 ar
10 2 14 2
11 3 14 ar
12 3 15 1
13 15 16 1
14 15 19 1
15 16 17 1
16 17 18 1
17 4 18 1
18 5 18 1
19 5 19 1
20 6 19 2
21 3 20 ar
22 7 20 2
@<TRIPOS>SUBSTRUCTURE
1	RES1	1	GROUP	1 ****	RES
