# created with PyMOL 2.5.2
@<TRIPOS>MOLECULE
CDK2_6H0G_E3ligase
20 22 1                 
SMALL
USER_CHARGES
@<TRIPOS>ATOM
1	  N5	1.962	54.454	-85.606	N.pl3	1	RES1	0.000	
2	  N6	1.698	51.818	-82.103	N.2	1	RES1	0.000	
3	  O6	2.777	53.786	-82.839	O.2	1	RES1	0.000	
4	  N7	2.003	50.072	-78.861	N.pl3	1	RES1	0.000	
5	  O7	3.703	49.646	-77.447	O.2	1	RES1	0.000	
6	  O8	0.178	50.491	-80.159	O.2	1	RES1	0.000	
7	  O9	0.452	49.826	-82.253	O.2	1	RES1	0.000	
8	 C26	1.339	53.214	-85.442	C.2	1	RES1	0.000	
9	 C27	0.529	52.662	-86.464	C.2	1	RES1	0.000	
10	 C28	-0.160	51.452	-86.315	C.2	1	RES1	0.000	
11	 C29	-0.081	50.755	-85.083	C.2	1	RES1	0.000	
12	 C30	0.671	51.324	-84.070	C.2	1	RES1	0.000	
13	 C31	1.351	52.500	-84.226	C.2	1	RES1	0.000	
14	 C32	2.031	52.807	-82.993	C.2	1	RES1	0.000	
15	 C33	2.216	51.663	-80.723	C.3	1	RES1	0.000	
16	 C34	3.715	51.238	-80.697	C.3	1	RES1	0.000	
17	 C35	4.159	51.164	-79.243	C.3	1	RES1	0.000	
18	 C36	3.294	50.210	-78.425	C.2	1	RES1	0.000	
19	 C37	1.360	50.658	-79.917	C.2	1	RES1	0.000	
20	 C38	0.930	50.853	-82.697	C.2	1	RES1	0.000	
@<TRIPOS>BOND
1 1 8 1
2 8 9 ar
3 8 13 ar
4 9 10 ar
5 10 11 ar
6 11 12 ar
7 12 13 ar
8 12 20 ar
9 13 14 ar
10 2 14 ar
11 3 14 2
12 2 15 1
13 15 16 1
14 15 19 1
15 16 17 1
16 17 18 1
17 4 18 1
18 5 18 2
19 4 19 1
20 6 19 2
21 2 20 ar
22 7 20 2
@<TRIPOS>SUBSTRUCTURE
1	RES1	1	GROUP	1 ****	RES
