# created with PyMOL 2.5.2
@<TRIPOS>MOLECULE
CDK6_6H0G_E3ligase
20 22 1                 
SMALL
USER_CHARGES
@<TRIPOS>ATOM
1	  O3	2.809	53.744	-82.841	O.2	1	RES1	0.000	
2	  O4	3.712	49.663	-77.411	O.2	1	RES1	0.000	
3	  O5	0.215	50.419	-80.225	O.2	1	RES1	0.000	
4	  N6	1.975	54.455	-85.615	N.pl3	1	RES1	0.000	
5	  O6	0.429	49.849	-82.237	O.2	1	RES1	0.000	
6	  N7	1.721	51.792	-82.101	N.2	1	RES1	0.000	
7	  N8	1.984	50.052	-78.862	N.pl3	1	RES1	0.000	
8	 C25	1.330	53.212	-85.455	C.2	1	RES1	0.000	
9	 C26	0.514	52.669	-86.472	C.2	1	RES1	0.000	
10	 C27	-0.166	51.462	-86.283	C.2	1	RES1	0.000	
11	 C28	-0.134	50.788	-85.084	C.2	1	RES1	0.000	
12	 C29	0.662	51.324	-84.066	C.2	1	RES1	0.000	
13	 C30	1.371	52.492	-84.252	C.2	1	RES1	0.000	
14	 C31	2.053	52.804	-82.987	C.2	1	RES1	0.000	
15	 C32	2.226	51.650	-80.727	C.3	1	RES1	0.000	
16	 C33	3.708	51.261	-80.656	C.3	1	RES1	0.000	
17	 C34	4.145	51.189	-79.205	C.3	1	RES1	0.000	
18	 C35	3.289	50.248	-78.422	C.2	1	RES1	0.000	
19	 C36	1.377	50.660	-79.954	C.2	1	RES1	0.000	
20	 C37	0.906	50.861	-82.711	C.2	1	RES1	0.000	
@<TRIPOS>BOND
1 1 14 2
2 4 8 1
3 8 9 ar
4 8 13 ar
5 9 10 ar
6 10 11 ar
7 11 12 ar
8 12 13 ar
9 12 20 ar
10 13 14 ar
11 6 14 ar
12 6 15 1
13 15 16 1
14 15 19 1
15 16 17 1
16 17 18 1
17 2 18 2
18 7 18 1
19 3 19 2
20 7 19 1
21 5 20 2
22 6 20 ar
@<TRIPOS>SUBSTRUCTURE
1	RES1	1	GROUP	1 ****	RES
