# created with PyMOL 2.5.2
@<TRIPOS>MOLECULE
GSK_4TZ4_E3ligase
19 21 1                 
SMALL
USER_CHARGES
@<TRIPOS>ATOM
1	  N7	-46.262	59.163	-98.079	N.pl3	1	RES1	0.000	
2	  O7	-46.494	50.035	-94.897	O.2	1	RES1	0.000	
3	  N8	-45.169	55.255	-96.252	N.2	1	RES1	0.000	
4	  O8	-43.344	53.250	-95.481	O.2	1	RES1	0.000	
5	  N9	-44.954	51.711	-95.196	N.pl3	1	RES1	0.000	
6	  O9	-43.690	55.246	-94.447	O.2	1	RES1	0.000	
7	 C23	-45.357	58.822	-97.063	C.2	1	RES1	0.000	
8	 C24	-44.684	59.830	-96.357	C.2	1	RES1	0.000	
9	 C25	-43.818	59.546	-95.301	C.2	1	RES1	0.000	
10	 C26	-43.614	58.229	-94.888	C.2	1	RES1	0.000	
11	 C27	-44.320	57.250	-95.553	C.2	1	RES1	0.000	
12	 C28	-45.169	57.514	-96.614	C.2	1	RES1	0.000	
13	 C29	-45.790	56.248	-97.108	C.2	1	RES1	0.000	
14	 C30	-45.558	53.813	-96.307	C.3	1	RES1	0.000	
15	 C31	-46.958	53.542	-95.742	C.3	1	RES1	0.000	
16	 C32	-47.264	52.084	-95.934	C.3	1	RES1	0.000	
17	 C33	-46.243	51.160	-95.277	C.2	1	RES1	0.000	
18	 C34	-44.519	52.926	-95.604	C.2	1	RES1	0.000	
19	 C35	-44.312	55.799	-95.322	C.2	1	RES1	0.000	
@<TRIPOS>BOND
1 1 7 1
2 7 8 ar
3 7 12 ar
4 8 9 ar
5 9 10 ar
6 10 11 ar
7 11 12 ar
8 11 19 ar
9 12 13 ar
10 3 13 ar
11 3 14 1
12 14 15 1
13 14 18 1
14 15 16 1
15 16 17 1
16 2 17 2
17 5 17 1
18 4 18 2
19 5 18 1
20 3 19 ar
21 6 19 2
@<TRIPOS>SUBSTRUCTURE
1	RES1	1	GROUP	1 ****	RES
