# created with PyMOL 2.5.2
@<TRIPOS>MOLECULE
GSK_6H0G_E3ligase
20 22 1                 
SMALL
USER_CHARGES
@<TRIPOS>ATOM
1	  O5	2.763	53.752	-82.806	O.2	1	RES1	0.000	
2	  N6	2.100	54.360	-85.609	N.pl3	1	RES1	0.000	
3	  O6	3.728	49.740	-77.402	O.2	1	RES1	0.000	
4	  N7	1.732	51.735	-82.137	N.2	1	RES1	0.000	
5	  O7	0.231	50.317	-80.242	O.2	1	RES1	0.000	
6	  N8	2.033	50.024	-78.879	N.pl3	1	RES1	0.000	
7	  O8	0.324	49.858	-82.238	O.2	1	RES1	0.000	
8	 C19	1.333	53.224	-85.425	C.2	1	RES1	0.000	
9	 C20	0.551	52.697	-86.468	C.2	1	RES1	0.000	
10	 C21	-0.191	51.501	-86.311	C.2	1	RES1	0.000	
11	 C22	-0.150	50.804	-85.099	C.2	1	RES1	0.000	
12	 C23	0.641	51.334	-84.074	C.2	1	RES1	0.000	
13	 C24	1.340	52.498	-84.230	C.2	1	RES1	0.000	
14	 C25	2.050	52.755	-82.985	C.2	1	RES1	0.000	
15	 C26	2.238	51.648	-80.754	C.3	1	RES1	0.000	
16	 C27	3.740	51.330	-80.631	C.3	1	RES1	0.000	
17	 C28	4.130	51.288	-79.162	C.3	1	RES1	0.000	
18	 C29	3.286	50.269	-78.408	C.2	1	RES1	0.000	
19	 C30	1.400	50.612	-79.985	C.2	1	RES1	0.000	
20	 C31	0.847	50.844	-82.720	C.2	1	RES1	0.000	
@<TRIPOS>BOND
1 2 8 1
2 8 9 ar
3 8 13 ar
4 9 10 ar
5 10 11 ar
6 11 12 ar
7 12 13 ar
8 12 20 ar
9 13 14 ar
10 1 14 2
11 4 14 ar
12 4 15 1
13 15 16 1
14 15 19 1
15 16 17 1
16 17 18 1
17 3 18 2
18 6 18 1
19 5 19 2
20 6 19 1
21 4 20 ar
22 7 20 2
@<TRIPOS>SUBSTRUCTURE
1	RES1	1	GROUP	1 ****	RES
