# created with PyMOL 2.5.2
@<TRIPOS>MOLECULE
GSK_6H0G_E3ligase
20 22 1                 
SMALL
USER_CHARGES
@<TRIPOS>ATOM
1	  N6	1.970	54.434	-85.599	N.pl3	1	RES1	0.000	
2	  O6	2.808	53.738	-82.851	O.2	1	RES1	0.000	
3	  N7	1.737	51.770	-82.124	N.2	1	RES1	0.000	
4	  O7	3.656	49.682	-77.408	O.3	1	RES1	0.000	
5	  N8	2.009	50.086	-78.852	N.pl3	1	RES1	0.000	
6	  O8	0.219	50.439	-80.221	O.2	1	RES1	0.000	
7	  O9	0.434	49.836	-82.240	O.2	1	RES1	0.000	
8	 C21	1.325	53.215	-85.427	C.2	1	RES1	0.000	
9	 C22	0.524	52.669	-86.466	C.2	1	RES1	0.000	
10	 C23	-0.187	51.466	-86.292	C.2	1	RES1	0.000	
11	 C24	-0.125	50.788	-85.083	C.2	1	RES1	0.000	
12	 C25	0.647	51.337	-84.068	C.2	1	RES1	0.000	
13	 C26	1.355	52.499	-84.232	C.2	1	RES1	0.000	
14	 C27	2.070	52.794	-82.997	C.2	1	RES1	0.000	
15	 C28	2.245	51.632	-80.743	C.3	1	RES1	0.000	
16	 C29	3.732	51.260	-80.655	C.3	1	RES1	0.000	
17	 C30	4.157	51.182	-79.219	C.3	1	RES1	0.000	
18	 C31	3.274	50.226	-78.414	C.3	1	RES1	0.000	
19	 C32	1.378	50.670	-79.948	C.2	1	RES1	0.000	
20	 C33	0.897	50.869	-82.728	C.2	1	RES1	0.000	
@<TRIPOS>BOND
1 1 8 1
2 8 9 ar
3 8 13 ar
4 9 10 ar
5 10 11 ar
6 11 12 ar
7 12 13 ar
8 12 20 ar
9 13 14 ar
10 2 14 2
11 3 14 ar
12 3 15 1
13 15 16 1
14 15 19 1
15 16 17 1
16 17 18 1
17 4 18 1
18 5 18 1
19 5 19 1
20 6 19 2
21 3 20 ar
22 7 20 2
@<TRIPOS>SUBSTRUCTURE
1	RES1	1	GROUP	1 ****	RES
