# created with PyMOL 2.5.2
@<TRIPOS>MOLECULE
GSK_6H0G_E3ligase
20 22 1                 
SMALL
USER_CHARGES
@<TRIPOS>ATOM
1	  N6	1.992	54.434	-85.618	N.pl3	1	RES1	0.000	
2	  N7	1.726	51.790	-82.117	N.2	1	RES1	0.000	
3	  O7	2.815	53.745	-82.852	O.2	1	RES1	0.000	
4	  N8	1.998	50.065	-78.867	N.pl3	1	RES1	0.000	
5	  O8	3.696	49.672	-77.378	O.3	1	RES1	0.000	
6	  O9	0.201	50.400	-80.222	O.2	1	RES1	0.000	
7	 O10	0.426	49.846	-82.245	O.2	1	RES1	0.000	
8	 C23	1.338	53.207	-85.460	C.2	1	RES1	0.000	
9	 C24	0.527	52.678	-86.473	C.2	1	RES1	0.000	
10	 C25	-0.196	51.469	-86.292	C.2	1	RES1	0.000	
11	 C26	-0.123	50.787	-85.077	C.2	1	RES1	0.000	
12	 C27	0.651	51.345	-84.054	C.2	1	RES1	0.000	
13	 C28	1.333	52.497	-84.243	C.2	1	RES1	0.000	
14	 C29	2.064	52.786	-82.996	C.2	1	RES1	0.000	
15	 C30	2.240	51.653	-80.738	C.3	1	RES1	0.000	
16	 C31	3.704	51.255	-80.650	C.3	1	RES1	0.000	
17	 C32	4.153	51.216	-79.202	C.3	1	RES1	0.000	
18	 C33	3.291	50.240	-78.417	C.3	1	RES1	0.000	
19	 C34	1.387	50.638	-79.956	C.2	1	RES1	0.000	
20	 C35	0.901	50.873	-82.709	C.2	1	RES1	0.000	
@<TRIPOS>BOND
1 7 20 2
2 1 8 1
3 8 9 ar
4 8 13 ar
5 9 10 ar
6 10 11 ar
7 11 12 ar
8 12 13 ar
9 12 20 ar
10 13 14 ar
11 2 14 ar
12 3 14 2
13 2 15 1
14 15 16 1
15 15 19 1
16 16 17 1
17 17 18 1
18 4 18 1
19 5 18 1
20 4 19 1
21 6 19 2
22 2 20 ar
@<TRIPOS>SUBSTRUCTURE
1	RES1	1	GROUP	1 ****	RES
