# created with PyMOL 2.5.2
@<TRIPOS>MOLECULE
GSK_6H0G_E3ligase
20 22 1                 
SMALL
USER_CHARGES
@<TRIPOS>ATOM
1	  N6	1.969	54.453	-85.623	N.pl3	1	RES1	0.000	
2	  N7	1.734	51.818	-82.103	N.2	1	RES1	0.000	
3	  N8	1.994	50.055	-78.895	N.pl3	1	RES1	0.000	
4	  O8	2.815	53.782	-82.856	O.2	1	RES1	0.000	
5	  O9	3.690	49.627	-77.411	O.3	1	RES1	0.000	
6	 O10	0.218	50.408	-80.232	O.2	1	RES1	0.000	
7	 O11	0.429	49.847	-82.219	O.2	1	RES1	0.000	
8	 C25	1.326	53.187	-85.458	C.2	1	RES1	0.000	
9	 C26	0.524	52.651	-86.469	C.2	1	RES1	0.000	
10	 C27	-0.175	51.459	-86.263	C.2	1	RES1	0.000	
11	 C28	-0.113	50.775	-85.052	C.2	1	RES1	0.000	
12	 C29	0.682	51.331	-84.072	C.2	1	RES1	0.000	
13	 C30	1.349	52.498	-84.248	C.2	1	RES1	0.000	
14	 C31	2.067	52.815	-82.980	C.2	1	RES1	0.000	
15	 C32	2.234	51.672	-80.714	C.3	1	RES1	0.000	
16	 C33	3.701	51.282	-80.663	C.3	1	RES1	0.000	
17	 C34	4.128	51.209	-79.210	C.3	1	RES1	0.000	
18	 C35	3.281	50.197	-78.438	C.3	1	RES1	0.000	
19	 C36	1.372	50.651	-79.977	C.2	1	RES1	0.000	
20	 C37	0.900	50.875	-82.684	C.2	1	RES1	0.000	
@<TRIPOS>BOND
1 6 19 2
2 7 20 2
3 1 8 1
4 8 9 ar
5 8 13 ar
6 9 10 ar
7 10 11 ar
8 11 12 ar
9 12 13 ar
10 12 20 ar
11 13 14 ar
12 2 14 ar
13 4 14 2
14 2 15 1
15 15 16 1
16 15 19 1
17 16 17 1
18 17 18 1
19 3 18 1
20 5 18 1
21 3 19 1
22 2 20 ar
@<TRIPOS>SUBSTRUCTURE
1	RES1	1	GROUP	1 ****	RES
