# created with PyMOL 2.5.2
@<TRIPOS>MOLECULE
GSK_6H0G_E3ligase
20 22 1                 
SMALL
USER_CHARGES
@<TRIPOS>ATOM
1	  N6	2.140	54.359	-85.614	N.pl3	1	RES1	0.000	
2	  N7	1.730	51.694	-82.126	N.2	1	RES1	0.000	
3	  N8	2.044	50.029	-78.862	N.pl3	1	RES1	0.000	
4	  O9	2.783	53.691	-82.782	O.2	1	RES1	0.000	
5	 O10	3.727	49.799	-77.373	O.2	1	RES1	0.000	
6	 O11	0.274	50.268	-80.239	O.2	1	RES1	0.000	
7	 O12	0.309	49.836	-82.280	O.2	1	RES1	0.000	
8	 C27	1.345	53.214	-85.423	C.2	1	RES1	0.000	
9	 C28	0.568	52.698	-86.476	C.2	1	RES1	0.000	
10	 C29	-0.187	51.520	-86.300	C.2	1	RES1	0.000	
11	 C30	-0.185	50.828	-85.120	C.2	1	RES1	0.000	
12	 C31	0.614	51.356	-84.089	C.2	1	RES1	0.000	
13	 C32	1.347	52.504	-84.243	C.2	1	RES1	0.000	
14	 C33	2.046	52.753	-82.981	C.2	1	RES1	0.000	
15	 C34	2.200	51.626	-80.738	C.3	1	RES1	0.000	
16	 C35	3.708	51.361	-80.647	C.3	1	RES1	0.000	
17	 C36	4.097	51.340	-79.166	C.3	1	RES1	0.000	
18	 C37	3.319	50.310	-78.426	C.2	1	RES1	0.000	
19	 C38	1.415	50.554	-79.960	C.2	1	RES1	0.000	
20	 C39	0.830	50.851	-82.717	C.2	1	RES1	0.000	
@<TRIPOS>BOND
1 5 18 2
2 6 19 2
3 7 20 2
4 1 8 1
5 8 9 ar
6 8 13 ar
7 9 10 ar
8 10 11 ar
9 11 12 ar
10 12 13 ar
11 12 20 ar
12 13 14 ar
13 2 14 ar
14 4 14 2
15 2 15 1
16 15 16 1
17 15 19 1
18 16 17 1
19 17 18 1
20 3 18 1
21 3 19 1
22 2 20 ar
@<TRIPOS>SUBSTRUCTURE
1	RES1	1	GROUP	1 ****	RES
