# created with PyMOL 2.5.2
@<TRIPOS>MOLECULE
GSK_6H0G_E3ligase
20 22 1                 
SMALL
USER_CHARGES
@<TRIPOS>ATOM
1	  O5	2.800	53.714	-82.779	O.2	1	RES1	0.000	
2	  N6	2.116	54.349	-85.610	N.pl3	1	RES1	0.000	
3	  O6	3.736	49.783	-77.386	O.2	1	RES1	0.000	
4	  N7	1.732	51.705	-82.131	N.2	1	RES1	0.000	
5	  O7	0.261	50.282	-80.245	O.2	1	RES1	0.000	
6	  N8	2.032	50.036	-78.871	N.pl3	1	RES1	0.000	
7	  O8	0.298	49.859	-82.272	O.2	1	RES1	0.000	
8	 C20	1.329	53.223	-85.409	C.2	1	RES1	0.000	
9	 C21	0.555	52.697	-86.486	C.2	1	RES1	0.000	
10	 C22	-0.172	51.511	-86.306	C.2	1	RES1	0.000	
11	 C23	-0.156	50.809	-85.119	C.2	1	RES1	0.000	
12	 C24	0.606	51.346	-84.086	C.2	1	RES1	0.000	
13	 C25	1.327	52.512	-84.239	C.2	1	RES1	0.000	
14	 C26	2.059	52.754	-82.976	C.2	1	RES1	0.000	
15	 C27	2.223	51.636	-80.730	C.3	1	RES1	0.000	
16	 C28	3.710	51.354	-80.633	C.3	1	RES1	0.000	
17	 C29	4.110	51.313	-79.198	C.3	1	RES1	0.000	
18	 C30	3.315	50.287	-78.392	C.2	1	RES1	0.000	
19	 C31	1.398	50.579	-79.963	C.2	1	RES1	0.000	
20	 C32	0.849	50.844	-82.735	C.2	1	RES1	0.000	
@<TRIPOS>BOND
1 2 8 1
2 8 9 ar
3 8 13 ar
4 9 10 ar
5 10 11 ar
6 11 12 ar
7 12 13 ar
8 12 20 ar
9 13 14 ar
10 1 14 2
11 4 14 ar
12 4 15 1
13 15 16 1
14 15 19 1
15 16 17 1
16 17 18 1
17 3 18 2
18 6 18 1
19 5 19 2
20 6 19 1
21 4 20 ar
22 7 20 2
@<TRIPOS>SUBSTRUCTURE
1	RES1	1	GROUP	1 ****	RES
