# created with PyMOL 2.5.2
@<TRIPOS>MOLECULE
GSK_6H0G_E3ligase
20 22 1                 
SMALL
USER_CHARGES
@<TRIPOS>ATOM
1	  N6	1.988	54.439	-85.597	N.pl3	1	RES1	0.000	
2	  O6	2.836	53.722	-82.851	O.2	1	RES1	0.000	
3	  N7	1.735	51.766	-82.113	N.2	1	RES1	0.000	
4	  O7	3.688	49.708	-77.397	O.2	1	RES1	0.000	
5	  N8	1.985	50.078	-78.848	N.pl3	1	RES1	0.000	
6	  O8	0.201	50.425	-80.202	O.2	1	RES1	0.000	
7	  O9	0.432	49.824	-82.264	O.2	1	RES1	0.000	
8	 C22	1.337	53.219	-85.450	C.2	1	RES1	0.000	
9	 C23	0.501	52.677	-86.457	C.2	1	RES1	0.000	
10	 C24	-0.190	51.479	-86.293	C.2	1	RES1	0.000	
11	 C25	-0.135	50.787	-85.085	C.2	1	RES1	0.000	
12	 C26	0.662	51.340	-84.071	C.2	1	RES1	0.000	
13	 C27	1.352	52.500	-84.241	C.2	1	RES1	0.000	
14	 C28	2.081	52.792	-83.004	C.2	1	RES1	0.000	
15	 C29	2.251	51.631	-80.743	C.3	1	RES1	0.000	
16	 C30	3.719	51.239	-80.677	C.3	1	RES1	0.000	
17	 C31	4.148	51.196	-79.214	C.3	1	RES1	0.000	
18	 C32	3.272	50.252	-78.391	C.2	1	RES1	0.000	
19	 C33	1.385	50.656	-79.960	C.2	1	RES1	0.000	
20	 C34	0.878	50.862	-82.708	C.2	1	RES1	0.000	
@<TRIPOS>BOND
1 1 8 1
2 8 9 ar
3 8 13 ar
4 9 10 ar
5 10 11 ar
6 11 12 ar
7 12 13 ar
8 12 20 ar
9 13 14 ar
10 2 14 2
11 3 14 ar
12 3 15 1
13 15 16 1
14 15 19 1
15 16 17 1
16 17 18 1
17 4 18 2
18 5 18 1
19 5 19 1
20 6 19 2
21 3 20 ar
22 7 20 2
@<TRIPOS>SUBSTRUCTURE
1	RES1	1	GROUP	1 ****	RES
