# created with PyMOL 2.5.2
@<TRIPOS>MOLECULE
GSK_6H0G_E3ligase
20 22 1                 
SMALL
USER_CHARGES
@<TRIPOS>ATOM
1	  N6	1.976	54.428	-85.627	N.pl3	1	RES1	0.000	
2	  N7	1.722	51.813	-82.096	N.2	1	RES1	0.000	
3	  O7	2.817	53.752	-82.872	O.2	1	RES1	0.000	
4	  N8	2.004	50.029	-78.872	N.pl3	1	RES1	0.000	
5	  O8	3.692	49.657	-77.416	O.3	1	RES1	0.000	
6	  O9	0.213	50.392	-80.225	O.2	1	RES1	0.000	
7	 O10	0.430	49.871	-82.241	O.2	1	RES1	0.000	
8	 C24	1.342	53.192	-85.465	C.2	1	RES1	0.000	
9	 C25	0.515	52.669	-86.474	C.2	1	RES1	0.000	
10	 C26	-0.171	51.451	-86.267	C.2	1	RES1	0.000	
11	 C27	-0.107	50.767	-85.069	C.2	1	RES1	0.000	
12	 C28	0.672	51.345	-84.038	C.2	1	RES1	0.000	
13	 C29	1.357	52.514	-84.249	C.2	1	RES1	0.000	
14	 C30	2.057	52.820	-82.998	C.2	1	RES1	0.000	
15	 C31	2.219	51.676	-80.720	C.3	1	RES1	0.000	
16	 C32	3.710	51.280	-80.658	C.3	1	RES1	0.000	
17	 C33	4.126	51.219	-79.204	C.3	1	RES1	0.000	
18	 C34	3.285	50.208	-78.440	C.3	1	RES1	0.000	
19	 C35	1.375	50.634	-79.955	C.2	1	RES1	0.000	
20	 C36	0.892	50.877	-82.681	C.2	1	RES1	0.000	
@<TRIPOS>BOND
1 7 20 2
2 1 8 1
3 8 9 ar
4 8 13 ar
5 9 10 ar
6 10 11 ar
7 11 12 ar
8 12 13 ar
9 12 20 ar
10 13 14 ar
11 2 14 ar
12 3 14 2
13 2 15 1
14 15 16 1
15 15 19 1
16 16 17 1
17 17 18 1
18 4 18 1
19 5 18 1
20 4 19 1
21 6 19 2
22 2 20 ar
@<TRIPOS>SUBSTRUCTURE
1	RES1	1	GROUP	1 ****	RES
