# created with PyMOL 2.5.2
@<TRIPOS>MOLECULE
GSK_6H0G_E3ligase
20 22 1                 
SMALL
USER_CHARGES
@<TRIPOS>ATOM
1	  N6	1.972	54.457	-85.589	N.pl3	1	RES1	0.000	
2	  N7	1.707	51.780	-82.094	N.2	1	RES1	0.000	
3	  N8	2.000	50.090	-78.858	N.pl3	1	RES1	0.000	
4	  O8	2.785	53.760	-82.814	O.2	1	RES1	0.000	
5	  O9	3.717	49.684	-77.422	O.2	1	RES1	0.000	
6	 O10	0.204	50.468	-80.174	O.2	1	RES1	0.000	
7	 O11	0.421	49.804	-82.272	O.2	1	RES1	0.000	
8	 C26	1.340	53.221	-85.432	C.2	1	RES1	0.000	
9	 C27	0.543	52.685	-86.479	C.2	1	RES1	0.000	
10	 C28	-0.178	51.456	-86.322	C.2	1	RES1	0.000	
11	 C29	-0.110	50.773	-85.097	C.2	1	RES1	0.000	
12	 C30	0.667	51.330	-84.059	C.2	1	RES1	0.000	
13	 C31	1.354	52.497	-84.242	C.2	1	RES1	0.000	
14	 C32	2.041	52.792	-82.990	C.2	1	RES1	0.000	
15	 C33	2.212	51.636	-80.743	C.3	1	RES1	0.000	
16	 C34	3.700	51.231	-80.675	C.3	1	RES1	0.000	
17	 C35	4.162	51.197	-79.223	C.3	1	RES1	0.000	
18	 C36	3.294	50.229	-78.415	C.2	1	RES1	0.000	
19	 C37	1.385	50.663	-79.936	C.2	1	RES1	0.000	
20	 C38	0.908	50.839	-82.729	C.2	1	RES1	0.000	
@<TRIPOS>BOND
1 6 19 2
2 7 20 2
3 1 8 1
4 8 9 ar
5 8 13 ar
6 9 10 ar
7 10 11 ar
8 11 12 ar
9 12 13 ar
10 12 20 ar
11 13 14 ar
12 2 14 ar
13 4 14 2
14 2 15 1
15 15 16 1
16 15 19 1
17 16 17 1
18 17 18 1
19 3 18 1
20 5 18 2
21 3 19 1
22 2 20 ar
@<TRIPOS>SUBSTRUCTURE
1	RES1	1	GROUP	1 ****	RES
