# created with PyMOL 2.5.2
@<TRIPOS>MOLECULE
CDK6_6H0G_E3ligase
20 22 1                 
SMALL
USER_CHARGES
@<TRIPOS>ATOM
1	  O3	2.819	53.765	-82.839	O.2	1	RES1	0.000	
2	  O4	3.681	49.665	-77.420	O.3	1	RES1	0.000	
3	  N5	1.965	54.443	-85.618	N.pl3	1	RES1	0.000	
4	  O5	0.218	50.427	-80.233	O.2	1	RES1	0.000	
5	  N6	1.726	51.800	-82.103	N.2	1	RES1	0.000	
6	  O6	0.426	49.844	-82.237	O.2	1	RES1	0.000	
7	  N7	2.009	50.054	-78.893	N.pl3	1	RES1	0.000	
8	 C21	1.331	53.181	-85.444	C.2	1	RES1	0.000	
9	 C22	0.543	52.663	-86.461	C.2	1	RES1	0.000	
10	 C23	-0.189	51.451	-86.285	C.2	1	RES1	0.000	
11	 C24	-0.111	50.782	-85.081	C.2	1	RES1	0.000	
12	 C25	0.659	51.340	-84.032	C.2	1	RES1	0.000	
13	 C26	1.351	52.513	-84.238	C.2	1	RES1	0.000	
14	 C27	2.063	52.817	-82.972	C.2	1	RES1	0.000	
15	 C28	2.226	51.661	-80.735	C.3	1	RES1	0.000	
16	 C29	3.702	51.282	-80.656	C.3	1	RES1	0.000	
17	 C30	4.136	51.192	-79.203	C.3	1	RES1	0.000	
18	 C31	3.289	50.221	-78.423	C.3	1	RES1	0.000	
19	 C32	1.388	50.638	-79.966	C.2	1	RES1	0.000	
20	 C33	0.894	50.854	-82.726	C.2	1	RES1	0.000	
@<TRIPOS>BOND
1 3 8 1
2 8 9 ar
3 8 13 ar
4 9 10 ar
5 10 11 ar
6 11 12 ar
7 12 13 ar
8 12 20 ar
9 13 14 ar
10 1 14 2
11 5 14 ar
12 5 15 1
13 15 16 1
14 15 19 1
15 16 17 1
16 17 18 1
17 2 18 1
18 7 18 1
19 4 19 2
20 7 19 1
21 5 20 ar
22 6 20 2
@<TRIPOS>SUBSTRUCTURE
1	RES1	1	GROUP	1 ****	RES
