# created with PyMOL 2.5.2
@<TRIPOS>MOLECULE
GSK_6H0G_E3ligase
20 22 1                 
SMALL
USER_CHARGES
@<TRIPOS>ATOM
1	  N6	1.982	54.448	-85.619	N.pl3	1	RES1	0.000	
2	  N7	1.743	51.794	-82.092	N.2	1	RES1	0.000	
3	  N8	1.991	50.054	-78.877	N.pl3	1	RES1	0.000	
4	  O9	2.856	53.758	-82.862	O.2	1	RES1	0.000	
5	 O10	3.690	49.682	-77.417	O.2	1	RES1	0.000	
6	 O11	0.209	50.412	-80.222	O.2	1	RES1	0.000	
7	 O12	0.424	49.836	-82.259	O.2	1	RES1	0.000	
8	 C28	1.333	53.204	-85.465	C.2	1	RES1	0.000	
9	 C29	0.502	52.673	-86.463	C.2	1	RES1	0.000	
10	 C30	-0.189	51.484	-86.283	C.2	1	RES1	0.000	
11	 C31	-0.143	50.780	-85.063	C.2	1	RES1	0.000	
12	 C32	0.661	51.329	-84.067	C.2	1	RES1	0.000	
13	 C33	1.365	52.491	-84.227	C.2	1	RES1	0.000	
14	 C34	2.055	52.785	-83.001	C.2	1	RES1	0.000	
15	 C35	2.243	51.656	-80.739	C.3	1	RES1	0.000	
16	 C36	3.705	51.267	-80.653	C.3	1	RES1	0.000	
17	 C37	4.130	51.197	-79.183	C.3	1	RES1	0.000	
18	 C38	3.278	50.228	-78.410	C.2	1	RES1	0.000	
19	 C39	1.369	50.652	-79.960	C.2	1	RES1	0.000	
20	 C40	0.922	50.862	-82.703	C.2	1	RES1	0.000	
@<TRIPOS>BOND
1 5 18 2
2 6 19 2
3 7 20 2
4 1 8 1
5 8 9 ar
6 8 13 ar
7 9 10 ar
8 10 11 ar
9 11 12 ar
10 12 13 ar
11 12 20 ar
12 13 14 ar
13 2 14 ar
14 4 14 2
15 2 15 1
16 15 16 1
17 15 19 1
18 16 17 1
19 17 18 1
20 3 18 1
21 3 19 1
22 2 20 ar
@<TRIPOS>SUBSTRUCTURE
1	RES1	1	GROUP	1 ****	RES
