# created with PyMOL 2.5.2
@<TRIPOS>MOLECULE
GSK_6H0G_E3ligase
20 22 1                 
SMALL
USER_CHARGES
@<TRIPOS>ATOM
1	  O5	2.820	53.781	-82.840	O.2	1	RES1	0.000	
2	  N6	1.964	54.431	-85.621	N.pl3	1	RES1	0.000	
3	  O6	3.673	49.639	-77.424	O.3	1	RES1	0.000	
4	  N7	1.745	51.795	-82.097	N.2	1	RES1	0.000	
5	  O7	0.214	50.464	-80.217	O.2	1	RES1	0.000	
6	  N8	1.973	50.061	-78.874	N.pl3	1	RES1	0.000	
7	  O8	0.429	49.820	-82.271	O.2	1	RES1	0.000	
8	 C22	1.318	53.208	-85.461	C.2	1	RES1	0.000	
9	 C23	0.516	52.649	-86.456	C.2	1	RES1	0.000	
10	 C24	-0.178	51.466	-86.277	C.2	1	RES1	0.000	
11	 C25	-0.116	50.781	-85.070	C.2	1	RES1	0.000	
12	 C26	0.673	51.351	-84.063	C.2	1	RES1	0.000	
13	 C27	1.343	52.506	-84.239	C.2	1	RES1	0.000	
14	 C28	2.065	52.802	-83.000	C.2	1	RES1	0.000	
15	 C29	2.244	51.656	-80.734	C.3	1	RES1	0.000	
16	 C30	3.719	51.274	-80.659	C.3	1	RES1	0.000	
17	 C31	4.168	51.181	-79.209	C.3	1	RES1	0.000	
18	 C32	3.280	50.221	-78.421	C.3	1	RES1	0.000	
19	 C33	1.372	50.657	-79.943	C.2	1	RES1	0.000	
20	 C34	0.903	50.851	-82.693	C.2	1	RES1	0.000	
@<TRIPOS>BOND
1 2 8 1
2 8 9 ar
3 8 13 ar
4 9 10 ar
5 10 11 ar
6 11 12 ar
7 12 13 ar
8 12 20 ar
9 13 14 ar
10 1 14 2
11 4 14 ar
12 4 15 1
13 15 16 1
14 15 19 1
15 16 17 1
16 17 18 1
17 3 18 1
18 6 18 1
19 5 19 2
20 6 19 1
21 4 20 ar
22 7 20 2
@<TRIPOS>SUBSTRUCTURE
1	RES1	1	GROUP	1 ****	RES
