# created with PyMOL 2.5.2
@<TRIPOS>MOLECULE
GSK_6H0G_E3ligase
20 22 1                 
SMALL
USER_CHARGES
@<TRIPOS>ATOM
1	  N6	1.975	54.454	-85.625	N.pl3	1	RES1	0.000	
2	  O6	2.804	53.749	-82.850	O.2	1	RES1	0.000	
3	  N7	1.720	51.786	-82.085	N.2	1	RES1	0.000	
4	  O7	3.687	49.694	-77.423	O.2	1	RES1	0.000	
5	  N8	1.999	50.046	-78.849	N.pl3	1	RES1	0.000	
6	  O8	0.208	50.408	-80.204	O.2	1	RES1	0.000	
7	  O9	0.427	49.820	-82.235	O.2	1	RES1	0.000	
8	 C24	1.340	53.199	-85.459	C.2	1	RES1	0.000	
9	 C25	0.554	52.676	-86.466	C.2	1	RES1	0.000	
10	 C26	-0.171	51.487	-86.280	C.2	1	RES1	0.000	
11	 C27	-0.111	50.787	-85.070	C.2	1	RES1	0.000	
12	 C28	0.645	51.319	-84.071	C.2	1	RES1	0.000	
13	 C29	1.349	52.510	-84.240	C.2	1	RES1	0.000	
14	 C30	2.048	52.794	-82.996	C.2	1	RES1	0.000	
15	 C31	2.223	51.646	-80.735	C.3	1	RES1	0.000	
16	 C32	3.696	51.247	-80.670	C.3	1	RES1	0.000	
17	 C33	4.153	51.208	-79.225	C.3	1	RES1	0.000	
18	 C34	3.298	50.241	-78.420	C.2	1	RES1	0.000	
19	 C35	1.382	50.651	-79.951	C.2	1	RES1	0.000	
20	 C36	0.897	50.872	-82.712	C.2	1	RES1	0.000	
@<TRIPOS>BOND
1 1 8 1
2 8 9 ar
3 8 13 ar
4 9 10 ar
5 10 11 ar
6 11 12 ar
7 12 13 ar
8 12 20 ar
9 13 14 ar
10 2 14 2
11 3 14 ar
12 3 15 1
13 15 16 1
14 15 19 1
15 16 17 1
16 17 18 1
17 4 18 2
18 5 18 1
19 5 19 1
20 6 19 2
21 3 20 ar
22 7 20 2
@<TRIPOS>SUBSTRUCTURE
1	RES1	1	GROUP	1 ****	RES
