# created with PyMOL 2.5.2
@<TRIPOS>MOLECULE
GSK_6H0G_E3ligase
20 22 1                 
SMALL
USER_CHARGES
@<TRIPOS>ATOM
1	  N6	1.985	54.450	-85.606	N.pl3	1	RES1	0.000	
2	  N7	1.732	51.799	-82.096	N.2	1	RES1	0.000	
3	  O7	2.797	53.750	-82.855	O.2	1	RES1	0.000	
4	  N8	1.983	50.052	-78.877	N.pl3	1	RES1	0.000	
5	  O8	3.688	49.676	-77.407	O.2	1	RES1	0.000	
6	  O9	0.199	50.428	-80.200	O.2	1	RES1	0.000	
7	 O10	0.428	49.828	-82.247	O.2	1	RES1	0.000	
8	 C26	1.340	53.194	-85.449	C.2	1	RES1	0.000	
9	 C27	0.525	52.661	-86.462	C.2	1	RES1	0.000	
10	 C28	-0.184	51.470	-86.278	C.2	1	RES1	0.000	
11	 C29	-0.121	50.794	-85.077	C.2	1	RES1	0.000	
12	 C30	0.666	51.328	-84.054	C.2	1	RES1	0.000	
13	 C31	1.366	52.503	-84.243	C.2	1	RES1	0.000	
14	 C32	2.061	52.811	-83.004	C.2	1	RES1	0.000	
15	 C33	2.236	51.654	-80.733	C.3	1	RES1	0.000	
16	 C34	3.723	51.253	-80.669	C.3	1	RES1	0.000	
17	 C35	4.156	51.202	-79.222	C.3	1	RES1	0.000	
18	 C36	3.273	50.232	-78.428	C.2	1	RES1	0.000	
19	 C37	1.384	50.651	-79.964	C.2	1	RES1	0.000	
20	 C38	0.888	50.857	-82.695	C.2	1	RES1	0.000	
@<TRIPOS>BOND
1 7 20 2
2 1 8 1
3 8 9 ar
4 8 13 ar
5 9 10 ar
6 10 11 ar
7 11 12 ar
8 12 13 ar
9 12 20 ar
10 13 14 ar
11 2 14 ar
12 3 14 2
13 2 15 1
14 15 16 1
15 15 19 1
16 16 17 1
17 17 18 1
18 4 18 1
19 5 18 2
20 4 19 1
21 6 19 2
22 2 20 ar
@<TRIPOS>SUBSTRUCTURE
1	RES1	1	GROUP	1 ****	RES
