# created with PyMOL 2.5.2
@<TRIPOS>MOLECULE
GSK_6H0G_E3ligase
20 22 1                 
SMALL
USER_CHARGES
@<TRIPOS>ATOM
1	  N6	1.959	54.470	-85.575	N.pl3	1	RES1	0.000	
2	  N7	1.708	51.751	-82.106	N.2	1	RES1	0.000	
3	  N8	1.985	50.116	-78.841	N.pl3	1	RES1	0.000	
4	  O8	2.781	53.738	-82.831	O.2	1	RES1	0.000	
5	  O9	3.720	49.717	-77.395	O.2	1	RES1	0.000	
6	 O10	0.203	50.510	-80.128	O.2	1	RES1	0.000	
7	 O11	0.426	49.781	-82.299	O.2	1	RES1	0.000	
8	 C28	1.336	53.241	-85.441	C.2	1	RES1	0.000	
9	 C29	0.516	52.686	-86.464	C.2	1	RES1	0.000	
10	 C30	-0.165	51.498	-86.301	C.2	1	RES1	0.000	
11	 C31	-0.119	50.755	-85.125	C.2	1	RES1	0.000	
12	 C32	0.669	51.341	-84.092	C.2	1	RES1	0.000	
13	 C33	1.368	52.494	-84.242	C.2	1	RES1	0.000	
14	 C34	2.070	52.770	-82.972	C.2	1	RES1	0.000	
15	 C35	2.234	51.607	-80.758	C.3	1	RES1	0.000	
16	 C36	3.708	51.190	-80.699	C.3	1	RES1	0.000	
17	 C37	4.162	51.163	-79.224	C.3	1	RES1	0.000	
18	 C38	3.294	50.265	-78.417	C.2	1	RES1	0.000	
19	 C39	1.364	50.686	-79.920	C.2	1	RES1	0.000	
20	 C40	0.906	50.816	-82.736	C.2	1	RES1	0.000	
@<TRIPOS>BOND
1 6 19 2
2 7 20 2
3 1 8 1
4 8 9 ar
5 8 13 ar
6 9 10 ar
7 10 11 ar
8 11 12 ar
9 12 13 ar
10 12 20 ar
11 13 14 ar
12 2 14 ar
13 4 14 2
14 2 15 1
15 15 16 1
16 15 19 1
17 16 17 1
18 17 18 1
19 3 18 1
20 5 18 2
21 3 19 1
22 2 20 ar
@<TRIPOS>SUBSTRUCTURE
1	RES1	1	GROUP	1 ****	RES
