# created with PyMOL 2.5.2
@<TRIPOS>MOLECULE
GSK_6H0G_E3ligase
20 22 1                 
SMALL
USER_CHARGES
@<TRIPOS>ATOM
1	  N6	1.955	54.466	-85.603	N.pl3	1	RES1	0.000	
2	  N7	1.741	51.796	-82.112	N.2	1	RES1	0.000	
3	  N8	1.978	50.102	-78.859	N.pl3	1	RES1	0.000	
4	  O9	2.774	53.756	-82.842	O.2	1	RES1	0.000	
5	 O10	3.679	49.665	-77.419	O.3	1	RES1	0.000	
6	 O11	0.183	50.494	-80.198	O.2	1	RES1	0.000	
7	 O12	0.467	49.821	-82.263	O.2	1	RES1	0.000	
8	 C30	1.312	53.215	-85.453	C.2	1	RES1	0.000	
9	 C31	0.501	52.646	-86.449	C.2	1	RES1	0.000	
10	 C32	-0.176	51.465	-86.265	C.2	1	RES1	0.000	
11	 C33	-0.097	50.778	-85.070	C.2	1	RES1	0.000	
12	 C34	0.673	51.331	-84.044	C.2	1	RES1	0.000	
13	 C35	1.358	52.494	-84.241	C.2	1	RES1	0.000	
14	 C36	2.094	52.792	-83.009	C.2	1	RES1	0.000	
15	 C37	2.254	51.653	-80.746	C.3	1	RES1	0.000	
16	 C38	3.712	51.231	-80.687	C.3	1	RES1	0.000	
17	 C39	4.143	51.136	-79.224	C.3	1	RES1	0.000	
18	 C40	3.283	50.194	-78.433	C.3	1	RES1	0.000	
19	 C41	1.369	50.700	-79.936	C.2	1	RES1	0.000	
20	 C42	0.922	50.859	-82.714	C.2	1	RES1	0.000	
@<TRIPOS>BOND
1 5 18 1
2 6 19 2
3 7 20 2
4 1 8 1
5 8 9 ar
6 8 13 ar
7 9 10 ar
8 10 11 ar
9 11 12 ar
10 12 13 ar
11 12 20 ar
12 13 14 ar
13 2 14 ar
14 4 14 2
15 2 15 1
16 15 16 1
17 15 19 1
18 16 17 1
19 17 18 1
20 3 18 1
21 3 19 1
22 2 20 ar
@<TRIPOS>SUBSTRUCTURE
1	RES1	1	GROUP	1 ****	RES
