# created with PyMOL 2.5.2
@<TRIPOS>MOLECULE
JAK2_6H0G_E3ligase
20 22 1                 
SMALL
USER_CHARGES
@<TRIPOS>ATOM
1	  O4	2.831	53.729	-82.847	O.2	1	RES1	0.000	
2	  O5	3.698	49.729	-77.385	O.2	1	RES1	0.000	
3	  O6	0.204	50.440	-80.183	O.2	1	RES1	0.000	
4	  N7	1.974	54.451	-85.597	N.pl3	1	RES1	0.000	
5	  O7	0.421	49.827	-82.264	O.2	1	RES1	0.000	
6	  N8	1.709	51.769	-82.127	N.2	1	RES1	0.000	
7	  N9	1.994	50.063	-78.855	N.pl3	1	RES1	0.000	
8	 C20	1.345	53.205	-85.444	C.2	1	RES1	0.000	
9	 C21	0.523	52.681	-86.470	C.2	1	RES1	0.000	
10	 C22	-0.177	51.493	-86.298	C.2	1	RES1	0.000	
11	 C23	-0.132	50.784	-85.090	C.2	1	RES1	0.000	
12	 C24	0.668	51.340	-84.077	C.2	1	RES1	0.000	
13	 C25	1.336	52.503	-84.223	C.2	1	RES1	0.000	
14	 C26	2.066	52.792	-82.995	C.2	1	RES1	0.000	
15	 C27	2.238	51.628	-80.741	C.3	1	RES1	0.000	
16	 C28	3.730	51.221	-80.692	C.3	1	RES1	0.000	
17	 C29	4.133	51.186	-79.225	C.3	1	RES1	0.000	
18	 C30	3.290	50.264	-78.393	C.2	1	RES1	0.000	
19	 C31	1.377	50.657	-79.939	C.2	1	RES1	0.000	
20	 C32	0.898	50.832	-82.722	C.2	1	RES1	0.000	
@<TRIPOS>BOND
1 4 8 1
2 8 9 ar
3 8 13 ar
4 9 10 ar
5 10 11 ar
6 11 12 ar
7 12 13 ar
8 12 20 ar
9 13 14 ar
10 1 14 2
11 6 14 ar
12 6 15 1
13 15 16 1
14 15 19 1
15 16 17 1
16 17 18 1
17 2 18 2
18 7 18 1
19 3 19 2
20 7 19 1
21 5 20 2
22 6 20 ar
@<TRIPOS>SUBSTRUCTURE
1	RES1	1	GROUP	1 ****	RES
