# created with PyMOL 2.5.2
@<TRIPOS>MOLECULE
JAK2_6H0G_E3ligase
20 22 1                 
SMALL
USER_CHARGES
@<TRIPOS>ATOM
1	  O4	2.771	53.761	-82.826	O.2	1	RES1	0.000	
2	  O5	3.700	49.685	-77.406	O.2	1	RES1	0.000	
3	  O6	0.178	50.512	-80.142	O.2	1	RES1	0.000	
4	  N7	1.929	54.471	-85.575	N.pl3	1	RES1	0.000	
5	  O7	0.452	49.798	-82.274	O.2	1	RES1	0.000	
6	  N8	1.709	51.779	-82.098	N.2	1	RES1	0.000	
7	  N9	2.005	50.106	-78.819	N.pl3	1	RES1	0.000	
8	 C20	1.322	53.199	-85.441	C.2	1	RES1	0.000	
9	 C21	0.556	52.684	-86.472	C.2	1	RES1	0.000	
10	 C22	-0.141	51.468	-86.307	C.2	1	RES1	0.000	
11	 C23	-0.091	50.764	-85.100	C.2	1	RES1	0.000	
12	 C24	0.664	51.306	-84.076	C.2	1	RES1	0.000	
13	 C25	1.359	52.502	-84.247	C.2	1	RES1	0.000	
14	 C26	2.049	52.786	-82.980	C.2	1	RES1	0.000	
15	 C27	2.225	51.629	-80.745	C.3	1	RES1	0.000	
16	 C28	3.724	51.212	-80.723	C.3	1	RES1	0.000	
17	 C29	4.164	51.157	-79.264	C.3	1	RES1	0.000	
18	 C30	3.297	50.212	-78.436	C.2	1	RES1	0.000	
19	 C31	1.368	50.697	-79.923	C.2	1	RES1	0.000	
20	 C32	0.885	50.866	-82.711	C.2	1	RES1	0.000	
@<TRIPOS>BOND
1 4 8 1
2 8 9 ar
3 8 13 ar
4 9 10 ar
5 10 11 ar
6 11 12 ar
7 12 13 ar
8 12 20 ar
9 13 14 ar
10 1 14 2
11 6 14 ar
12 6 15 1
13 15 16 1
14 15 19 1
15 16 17 1
16 17 18 1
17 2 18 2
18 7 18 1
19 3 19 2
20 7 19 1
21 5 20 2
22 6 20 ar
@<TRIPOS>SUBSTRUCTURE
1	RES1	1	GROUP	1 ****	RES
