# created with PyMOL 2.5.2
@<TRIPOS>MOLECULE
JAK2_7BQU_E3ligase
19 21 1                 
SMALL
USER_CHARGES
@<TRIPOS>ATOM
1	  O5	27.393	17.209	11.964	O.2	1	RES1	0.000	
2	  O6	26.355	20.294	17.907	O.2	1	RES1	0.000	
3	  N7	25.404	17.675	13.132	N.2	1	RES1	0.000	
4	  O7	23.725	19.608	14.284	O.2	1	RES1	0.000	
5	  N8	25.079	19.870	16.068	N.pl3	1	RES1	0.000	
6	  O8	23.098	17.711	13.643	O.2	1	RES1	0.000	
7	 C20	25.557	15.500	10.252	C.2	1	RES1	0.000	
8	 C21	24.471	14.834	9.662	C.2	1	RES1	0.000	
9	 C22	23.175	14.976	10.185	C.2	1	RES1	0.000	
10	 C23	22.942	15.785	11.300	C.2	1	RES1	0.000	
11	 C24	24.010	16.454	11.846	C.2	1	RES1	0.000	
12	 C25	25.297	16.299	11.341	C.2	1	RES1	0.000	
13	 C26	26.200	17.124	12.172	C.2	1	RES1	0.000	
14	 C27	25.946	18.632	14.152	C.3	1	RES1	0.000	
15	 C28	26.852	17.967	15.171	C.3	1	RES1	0.000	
16	 C29	27.387	19.036	16.132	C.3	1	RES1	0.000	
17	 C30	26.228	19.769	16.820	C.2	1	RES1	0.000	
18	 C31	24.787	19.365	14.828	C.2	1	RES1	0.000	
19	 C32	24.088	17.345	12.980	C.2	1	RES1	0.000	
@<TRIPOS>BOND
1 7 8 ar
2 7 12 ar
3 8 9 ar
4 9 10 ar
5 10 11 ar
6 11 12 ar
7 11 19 ar
8 12 13 ar
9 1 13 2
10 3 13 ar
11 3 14 1
12 14 15 1
13 14 18 1
14 15 16 1
15 16 17 1
16 2 17 2
17 5 17 1
18 4 18 2
19 5 18 1
20 3 19 ar
21 6 19 2
@<TRIPOS>SUBSTRUCTURE
1	RES1	1	GROUP	1 ****	RES
