# created with PyMOL 2.5.2
@<TRIPOS>MOLECULE
JAK2_7BQU_E3ligase
19 21 1                 
SMALL
USER_CHARGES
@<TRIPOS>ATOM
1	  O4	23.128	17.677	13.666	O.2	1	RES1	0.000	
2	  O5	26.341	20.313	17.894	O.2	1	RES1	0.000	
3	  O6	23.760	19.642	14.221	O.2	1	RES1	0.000	
4	  O7	27.393	17.214	11.950	O.2	1	RES1	0.000	
5	  N8	25.444	17.668	13.149	N.2	1	RES1	0.000	
6	  N9	25.075	19.905	16.042	N.pl3	1	RES1	0.000	
7	 C19	24.463	14.847	9.659	C.2	1	RES1	0.000	
8	 C20	23.169	14.989	10.181	C.2	1	RES1	0.000	
9	 C21	22.918	15.794	11.280	C.2	1	RES1	0.000	
10	 C22	24.004	16.443	11.838	C.2	1	RES1	0.000	
11	 C23	24.094	17.317	13.010	C.2	1	RES1	0.000	
12	 C24	25.974	18.607	14.167	C.3	1	RES1	0.000	
13	 C25	26.807	17.931	15.236	C.3	1	RES1	0.000	
14	 C26	27.374	19.003	16.190	C.3	1	RES1	0.000	
15	 C27	26.216	19.790	16.827	C.2	1	RES1	0.000	
16	 C28	24.807	19.387	14.815	C.2	1	RES1	0.000	
17	 C29	26.186	17.106	12.146	C.2	1	RES1	0.000	
18	 C30	25.299	16.303	11.343	C.2	1	RES1	0.000	
19	 C31	25.543	15.516	10.223	C.2	1	RES1	0.000	
@<TRIPOS>BOND
1 7 8 ar
2 7 19 ar
3 8 9 ar
4 9 10 ar
5 10 11 ar
6 10 18 ar
7 1 11 2
8 5 11 ar
9 5 12 1
10 12 13 1
11 12 16 1
12 13 14 1
13 14 15 1
14 2 15 2
15 6 15 1
16 3 16 2
17 6 16 1
18 4 17 2
19 5 17 ar
20 17 18 ar
21 18 19 ar
@<TRIPOS>SUBSTRUCTURE
1	RES1	1	GROUP	1 ****	RES
