# created with PyMOL 2.5.2
@<TRIPOS>MOLECULE
CDK6_7BQU_E3ligase
19 21 1                 
SMALL
USER_CHARGES
@<TRIPOS>ATOM
1	  N5	25.407	17.689	13.143	N.2	1	RES1	0.000	
2	  O5	27.385	17.224	11.960	O.2	1	RES1	0.000	
3	  N6	25.085	19.881	16.087	N.pl3	1	RES1	0.000	
4	  O6	26.370	20.299	17.912	O.2	1	RES1	0.000	
5	  O7	23.705	19.601	14.305	O.2	1	RES1	0.000	
6	  O8	23.092	17.705	13.654	O.2	1	RES1	0.000	
7	 C21	25.548	15.495	10.237	C.2	1	RES1	0.000	
8	 C22	24.484	14.823	9.663	C.2	1	RES1	0.000	
9	 C23	23.189	14.966	10.172	C.2	1	RES1	0.000	
10	 C24	22.931	15.796	11.260	C.2	1	RES1	0.000	
11	 C25	24.032	16.448	11.853	C.2	1	RES1	0.000	
12	 C26	25.294	16.287	11.344	C.2	1	RES1	0.000	
13	 C27	26.186	17.103	12.164	C.2	1	RES1	0.000	
14	 C28	25.938	18.639	14.151	C.3	1	RES1	0.000	
15	 C29	26.839	17.976	15.187	C.3	1	RES1	0.000	
16	 C30	27.383	19.039	16.133	C.3	1	RES1	0.000	
17	 C31	26.237	19.766	16.796	C.2	1	RES1	0.000	
18	 C32	24.816	19.360	14.825	C.2	1	RES1	0.000	
19	 C33	24.074	17.354	12.994	C.2	1	RES1	0.000	
@<TRIPOS>BOND
1 7 8 ar
2 7 12 ar
3 8 9 ar
4 9 10 ar
5 10 11 ar
6 11 12 ar
7 11 19 ar
8 12 13 ar
9 1 13 ar
10 2 13 2
11 1 14 1
12 14 15 1
13 14 18 1
14 15 16 1
15 16 17 1
16 3 17 1
17 4 17 2
18 3 18 1
19 5 18 2
20 1 19 ar
21 6 19 2
@<TRIPOS>SUBSTRUCTURE
1	RES1	1	GROUP	1 ****	RES
