# created with PyMOL 2.5.2
@<TRIPOS>MOLECULE
JAK2_7BQU_E3ligase
19 21 1                 
SMALL
USER_CHARGES
@<TRIPOS>ATOM
1	  O4	23.120	17.618	13.670	O.2	1	RES1	0.000	
2	  O5	26.352	20.337	17.889	O.2	1	RES1	0.000	
3	  O6	23.797	19.727	14.213	O.2	1	RES1	0.000	
4	  O7	27.391	17.235	11.935	O.2	1	RES1	0.000	
5	  N9	25.403	17.660	13.167	N.2	1	RES1	0.000	
6	 N10	25.110	19.952	16.040	N.pl3	1	RES1	0.000	
7	 C20	24.458	14.874	9.642	C.2	1	RES1	0.000	
8	 C21	23.174	14.972	10.168	C.2	1	RES1	0.000	
9	 C22	22.933	15.763	11.307	C.2	1	RES1	0.000	
10	 C23	24.030	16.415	11.842	C.2	1	RES1	0.000	
11	 C24	24.078	17.326	13.028	C.2	1	RES1	0.000	
12	 C25	25.950	18.610	14.171	C.3	1	RES1	0.000	
13	 C26	26.779	17.885	15.244	C.3	1	RES1	0.000	
14	 C27	27.354	18.940	16.209	C.3	1	RES1	0.000	
15	 C28	26.214	19.764	16.803	C.2	1	RES1	0.000	
16	 C29	24.829	19.441	14.801	C.2	1	RES1	0.000	
17	 C30	26.187	17.112	12.156	C.2	1	RES1	0.000	
18	 C31	25.283	16.309	11.340	C.2	1	RES1	0.000	
19	 C32	25.552	15.514	10.214	C.2	1	RES1	0.000	
@<TRIPOS>BOND
1 6 15 1
2 6 16 1
3 7 8 ar
4 7 19 ar
5 8 9 ar
6 9 10 ar
7 10 11 ar
8 10 18 ar
9 1 11 2
10 5 11 ar
11 5 12 1
12 12 13 1
13 12 16 1
14 13 14 1
15 14 15 1
16 2 15 2
17 3 16 2
18 4 17 2
19 5 17 ar
20 17 18 ar
21 18 19 ar
@<TRIPOS>SUBSTRUCTURE
1	RES1	1	GROUP	1 ****	RES
