# created with PyMOL 2.5.2
@<TRIPOS>MOLECULE
JAK2_7BQU_E3ligase
19 21 1                 
SMALL
USER_CHARGES
@<TRIPOS>ATOM
1	  O4	23.117	17.611	13.711	O.2	1	RES1	0.000	
2	  O5	26.357	20.325	17.887	O.2	1	RES1	0.000	
3	  O6	23.824	19.726	14.183	O.2	1	RES1	0.000	
4	  O7	27.372	17.230	11.922	O.2	1	RES1	0.000	
5	  N9	25.401	17.654	13.173	N.2	1	RES1	0.000	
6	 N10	25.110	19.935	16.029	N.pl3	1	RES1	0.000	
7	 C20	24.468	14.862	9.613	C.2	1	RES1	0.000	
8	 C21	23.186	15.012	10.189	C.2	1	RES1	0.000	
9	 C22	22.939	15.743	11.290	C.2	1	RES1	0.000	
10	 C23	24.008	16.411	11.859	C.2	1	RES1	0.000	
11	 C24	24.080	17.309	13.020	C.2	1	RES1	0.000	
12	 C25	25.947	18.607	14.175	C.3	1	RES1	0.000	
13	 C26	26.776	17.896	15.255	C.3	1	RES1	0.000	
14	 C27	27.331	18.932	16.219	C.3	1	RES1	0.000	
15	 C28	26.213	19.785	16.805	C.2	1	RES1	0.000	
16	 C29	24.835	19.446	14.783	C.2	1	RES1	0.000	
17	 C30	26.200	17.113	12.160	C.2	1	RES1	0.000	
18	 C31	25.293	16.311	11.347	C.2	1	RES1	0.000	
19	 C32	25.537	15.546	10.218	C.2	1	RES1	0.000	
@<TRIPOS>BOND
1 6 15 1
2 6 16 1
3 7 8 ar
4 7 19 ar
5 8 9 ar
6 9 10 ar
7 10 11 ar
8 10 18 ar
9 1 11 2
10 5 11 ar
11 5 12 1
12 12 13 1
13 12 16 1
14 13 14 1
15 14 15 1
16 2 15 2
17 3 16 2
18 4 17 2
19 5 17 ar
20 17 18 ar
21 18 19 ar
@<TRIPOS>SUBSTRUCTURE
1	RES1	1	GROUP	1 ****	RES
