# created with PyMOL 2.5.2
@<TRIPOS>MOLECULE
BRD4_7BQU_E3ligase
19 21 1                 
SMALL
USER_CHARGES
@<TRIPOS>ATOM
1	  O4	27.375	17.208	11.968	O.2	1	RES1	0.000	
2	  O5	26.351	20.311	17.912	O.2	1	RES1	0.000	
3	  O6	23.715	19.579	14.302	O.2	1	RES1	0.000	
4	  N7	25.417	17.685	13.142	N.2	1	RES1	0.000	
5	  O7	23.091	17.708	13.642	O.2	1	RES1	0.000	
6	  N8	25.100	19.878	16.073	N.pl3	1	RES1	0.000	
7	 C22	25.554	15.495	10.234	C.2	1	RES1	0.000	
8	 C23	24.485	14.818	9.660	C.2	1	RES1	0.000	
9	 C24	23.183	14.973	10.165	C.2	1	RES1	0.000	
10	 C25	22.910	15.792	11.262	C.2	1	RES1	0.000	
11	 C26	24.025	16.437	11.849	C.2	1	RES1	0.000	
12	 C27	25.289	16.308	11.365	C.2	1	RES1	0.000	
13	 C28	26.190	17.118	12.161	C.2	1	RES1	0.000	
14	 C29	25.940	18.635	14.153	C.3	1	RES1	0.000	
15	 C30	26.859	17.974	15.185	C.3	1	RES1	0.000	
16	 C31	27.388	19.045	16.147	C.3	1	RES1	0.000	
17	 C32	26.247	19.770	16.804	C.2	1	RES1	0.000	
18	 C33	24.789	19.365	14.834	C.2	1	RES1	0.000	
19	 C34	24.087	17.353	12.980	C.2	1	RES1	0.000	
@<TRIPOS>BOND
1 7 8 ar
2 7 12 ar
3 8 9 ar
4 9 10 ar
5 10 11 ar
6 11 12 ar
7 11 19 ar
8 12 13 ar
9 1 13 2
10 4 13 ar
11 4 14 1
12 14 15 1
13 14 18 1
14 15 16 1
15 16 17 1
16 2 17 2
17 6 17 1
18 3 18 2
19 6 18 1
20 4 19 ar
21 5 19 2
@<TRIPOS>SUBSTRUCTURE
1	RES1	1	GROUP	1 ****	RES
