# created with PyMOL 2.5.2
@<TRIPOS>MOLECULE
BRD4_6H0G_E3ligase
20 22 1                 
SMALL
USER_CHARGES
@<TRIPOS>ATOM
1	  O3	2.794	53.738	-82.827	O.2	1	RES1	0.000	
2	  O4	3.721	49.706	-77.398	O.2	1	RES1	0.000	
3	  O5	0.186	50.448	-80.174	O.2	1	RES1	0.000	
4	  O6	0.439	49.817	-82.266	O.2	1	RES1	0.000	
5	  N7	1.982	54.459	-85.594	N.pl3	1	RES1	0.000	
6	  N8	1.705	51.773	-82.113	N.2	1	RES1	0.000	
7	  N9	2.003	50.084	-78.849	N.pl3	1	RES1	0.000	
8	 C22	1.327	53.210	-85.446	C.2	1	RES1	0.000	
9	 C23	0.529	52.681	-86.477	C.2	1	RES1	0.000	
10	 C24	-0.156	51.487	-86.298	C.2	1	RES1	0.000	
11	 C25	-0.115	50.793	-85.099	C.2	1	RES1	0.000	
12	 C26	0.662	51.309	-84.062	C.2	1	RES1	0.000	
13	 C27	1.355	52.491	-84.252	C.2	1	RES1	0.000	
14	 C28	2.054	52.793	-82.985	C.2	1	RES1	0.000	
15	 C29	2.228	51.631	-80.744	C.3	1	RES1	0.000	
16	 C30	3.687	51.235	-80.688	C.3	1	RES1	0.000	
17	 C31	4.156	51.176	-79.237	C.3	1	RES1	0.000	
18	 C32	3.291	50.259	-78.411	C.2	1	RES1	0.000	
19	 C33	1.386	50.654	-79.939	C.2	1	RES1	0.000	
20	 C34	0.891	50.850	-82.708	C.2	1	RES1	0.000	
@<TRIPOS>BOND
1 5 8 1
2 8 9 ar
3 8 13 ar
4 9 10 ar
5 10 11 ar
6 11 12 ar
7 12 13 ar
8 12 20 ar
9 13 14 ar
10 1 14 2
11 6 14 ar
12 6 15 1
13 15 16 1
14 15 19 1
15 16 17 1
16 17 18 1
17 2 18 2
18 7 18 1
19 3 19 2
20 7 19 1
21 4 20 2
22 6 20 ar
@<TRIPOS>SUBSTRUCTURE
1	RES1	1	GROUP	1 ****	RES
