# created with PyMOL 2.5.2
@<TRIPOS>MOLECULE
PD_7BQU_E3ligase
19 21 1                 
SMALL
USER_CHARGES
@<TRIPOS>ATOM
1	  N3	25.435	17.654	13.167	N.2	1	RES1	0.000	
2	  N4	25.105	19.947	16.016	N.pl3	1	RES1	0.000	
3	  O5	23.127	17.640	13.698	O.2	1	RES1	0.000	
4	  O6	26.305	20.335	17.910	O.2	1	RES1	0.000	
5	  O7	23.822	19.698	14.145	O.2	1	RES1	0.000	
6	  O8	27.385	17.235	11.931	O.2	1	RES1	0.000	
7	 C32	24.451	14.874	9.617	C.2	1	RES1	0.000	
8	 C33	23.168	15.009	10.172	C.2	1	RES1	0.000	
9	 C34	22.928	15.768	11.314	C.2	1	RES1	0.000	
10	 C35	24.029	16.411	11.876	C.2	1	RES1	0.000	
11	 C36	24.101	17.318	13.027	C.2	1	RES1	0.000	
12	 C37	25.955	18.576	14.173	C.3	1	RES1	0.000	
13	 C38	26.797	17.893	15.272	C.3	1	RES1	0.000	
14	 C39	27.344	18.935	16.247	C.3	1	RES1	0.000	
15	 C40	26.219	19.791	16.806	C.2	1	RES1	0.000	
16	 C41	24.835	19.423	14.773	C.2	1	RES1	0.000	
17	 C42	26.175	17.091	12.149	C.2	1	RES1	0.000	
18	 C43	25.280	16.299	11.338	C.2	1	RES1	0.000	
19	 C44	25.532	15.556	10.208	C.2	1	RES1	0.000	
@<TRIPOS>BOND
1 1 11 ar
2 1 12 1
3 1 17 ar
4 2 15 1
5 2 16 1
6 7 8 ar
7 7 19 ar
8 8 9 ar
9 9 10 ar
10 10 11 ar
11 10 18 ar
12 3 11 2
13 12 13 1
14 12 16 1
15 13 14 1
16 14 15 1
17 4 15 2
18 5 16 2
19 6 17 2
20 17 18 ar
21 18 19 ar
@<TRIPOS>SUBSTRUCTURE
1	RES1	1	GROUP	1 ****	RES
