# created with PyMOL 2.5.2
@<TRIPOS>MOLECULE
PD_7BQU_E3ligase
19 21 1                 
SMALL
USER_CHARGES
@<TRIPOS>ATOM
1	  N3	25.427	17.669	13.147	N.2	1	RES1	0.000	
2	  N4	25.076	19.906	16.045	N.pl3	1	RES1	0.000	
3	  O5	23.149	17.662	13.678	O.2	1	RES1	0.000	
4	  O6	26.315	20.342	17.892	O.2	1	RES1	0.000	
5	  O7	23.777	19.654	14.210	O.2	1	RES1	0.000	
6	  O8	27.397	17.210	11.939	O.2	1	RES1	0.000	
7	 C33	24.454	14.870	9.632	C.2	1	RES1	0.000	
8	 C34	23.154	14.983	10.168	C.2	1	RES1	0.000	
9	 C35	22.937	15.799	11.304	C.2	1	RES1	0.000	
10	 C36	24.025	16.446	11.870	C.2	1	RES1	0.000	
11	 C37	24.097	17.322	13.022	C.2	1	RES1	0.000	
12	 C38	25.950	18.590	14.164	C.3	1	RES1	0.000	
13	 C39	26.809	17.928	15.247	C.3	1	RES1	0.000	
14	 C40	27.340	18.967	16.201	C.3	1	RES1	0.000	
15	 C41	26.231	19.778	16.819	C.2	1	RES1	0.000	
16	 C42	24.837	19.411	14.785	C.2	1	RES1	0.000	
17	 C43	26.204	17.093	12.167	C.2	1	RES1	0.000	
18	 C44	25.277	16.314	11.345	C.2	1	RES1	0.000	
19	 C45	25.538	15.506	10.205	C.2	1	RES1	0.000	
@<TRIPOS>BOND
1 1 11 ar
2 1 12 1
3 1 17 ar
4 2 15 1
5 2 16 1
6 7 8 ar
7 7 19 ar
8 8 9 ar
9 9 10 ar
10 10 11 ar
11 10 18 ar
12 3 11 2
13 12 13 1
14 12 16 1
15 13 14 1
16 14 15 1
17 4 15 2
18 5 16 2
19 6 17 2
20 17 18 ar
21 18 19 ar
@<TRIPOS>SUBSTRUCTURE
1	RES1	1	GROUP	1 ****	RES
