# created with PyMOL 2.5.2
@<TRIPOS>MOLECULE
PD_7BQU_E3ligase
19 21 1                 
SMALL
USER_CHARGES
@<TRIPOS>ATOM
1	  N3	25.453	17.701	13.141	N.2	1	RES1	0.000	
2	  N4	25.065	19.892	16.073	N.pl3	1	RES1	0.000	
3	  O5	27.416	17.204	11.940	O.2	1	RES1	0.000	
4	  O6	26.296	20.292	17.904	O.2	1	RES1	0.000	
5	  O7	23.750	19.603	14.248	O.2	1	RES1	0.000	
6	  O8	23.131	17.691	13.658	O.2	1	RES1	0.000	
7	 C32	25.543	15.492	10.224	C.2	1	RES1	0.000	
8	 C33	24.456	14.836	9.658	C.2	1	RES1	0.000	
9	 C34	23.164	14.998	10.181	C.2	1	RES1	0.000	
10	 C35	22.921	15.798	11.302	C.2	1	RES1	0.000	
11	 C36	24.022	16.465	11.873	C.2	1	RES1	0.000	
12	 C37	25.286	16.314	11.339	C.2	1	RES1	0.000	
13	 C38	26.195	17.101	12.154	C.2	1	RES1	0.000	
14	 C39	25.974	18.620	14.163	C.3	1	RES1	0.000	
15	 C40	26.839	17.943	15.186	C.3	1	RES1	0.000	
16	 C41	27.357	19.017	16.164	C.3	1	RES1	0.000	
17	 C42	26.221	19.781	16.806	C.2	1	RES1	0.000	
18	 C43	24.803	19.361	14.802	C.2	1	RES1	0.000	
19	 C44	24.102	17.345	13.025	C.2	1	RES1	0.000	
@<TRIPOS>BOND
1 1 13 ar
2 1 14 1
3 1 19 ar
4 2 17 1
5 2 18 1
6 7 8 ar
7 7 12 ar
8 8 9 ar
9 9 10 ar
10 10 11 ar
11 11 12 ar
12 11 19 ar
13 12 13 ar
14 3 13 2
15 14 15 1
16 14 18 1
17 15 16 1
18 16 17 1
19 4 17 2
20 5 18 2
21 6 19 2
@<TRIPOS>SUBSTRUCTURE
1	RES1	1	GROUP	1 ****	RES
