# created with PyMOL 2.5.2
@<TRIPOS>MOLECULE
PD_7BQU_E3ligase
19 21 1                 
SMALL
USER_CHARGES
@<TRIPOS>ATOM
1	  N3	25.401	17.706	13.148	N.2	1	RES1	0.000	
2	  N4	25.079	19.881	16.081	N.pl3	1	RES1	0.000	
3	  O5	27.380	17.228	11.969	O.2	1	RES1	0.000	
4	  O6	26.366	20.286	17.900	O.2	1	RES1	0.000	
5	  O7	23.731	19.596	14.289	O.2	1	RES1	0.000	
6	  O8	23.077	17.676	13.640	O.2	1	RES1	0.000	
7	 C33	25.562	15.510	10.251	C.2	1	RES1	0.000	
8	 C34	24.494	14.828	9.656	C.2	1	RES1	0.000	
9	 C35	23.180	14.972	10.181	C.2	1	RES1	0.000	
10	 C36	22.926	15.767	11.276	C.2	1	RES1	0.000	
11	 C37	24.009	16.424	11.873	C.2	1	RES1	0.000	
12	 C38	25.286	16.313	11.355	C.2	1	RES1	0.000	
13	 C39	26.184	17.120	12.166	C.2	1	RES1	0.000	
14	 C40	25.919	18.631	14.116	C.3	1	RES1	0.000	
15	 C41	26.849	17.977	15.172	C.3	1	RES1	0.000	
16	 C42	27.379	19.021	16.155	C.3	1	RES1	0.000	
17	 C43	26.248	19.768	16.804	C.2	1	RES1	0.000	
18	 C44	24.830	19.390	14.823	C.2	1	RES1	0.000	
19	 C45	24.093	17.358	12.984	C.2	1	RES1	0.000	
@<TRIPOS>BOND
1 1 13 ar
2 1 14 1
3 1 19 ar
4 2 17 1
5 2 18 1
6 7 8 ar
7 7 12 ar
8 8 9 ar
9 9 10 ar
10 10 11 ar
11 11 12 ar
12 11 19 ar
13 12 13 ar
14 3 13 2
15 14 15 1
16 14 18 1
17 15 16 1
18 16 17 1
19 4 17 2
20 5 18 2
21 6 19 2
@<TRIPOS>SUBSTRUCTURE
1	RES1	1	GROUP	1 ****	RES
