# created with PyMOL 2.5.2
@<TRIPOS>MOLECULE
SHP2_7BQU_E3ligase
19 21 1                 
SMALL
USER_CHARGES
@<TRIPOS>ATOM
1	  N5	25.407	17.695	13.151	N.2	1	RES1	0.000	
2	  N6	25.066	19.898	16.062	N.pl3	1	RES1	0.000	
3	  O8	27.371	17.211	11.969	O.2	1	RES1	0.000	
4	  O9	26.360	20.302	17.902	O.2	1	RES1	0.000	
5	 O10	23.741	19.599	14.284	O.2	1	RES1	0.000	
6	 O11	23.114	17.694	13.653	O.2	1	RES1	0.000	
7	 C26	25.552	15.505	10.237	C.2	1	RES1	0.000	
8	 C27	24.483	14.822	9.668	C.2	1	RES1	0.000	
9	 C28	23.184	14.974	10.180	C.2	1	RES1	0.000	
10	 C29	22.927	15.806	11.274	C.2	1	RES1	0.000	
11	 C30	24.023	16.436	11.859	C.2	1	RES1	0.000	
12	 C31	25.304	16.301	11.340	C.2	1	RES1	0.000	
13	 C32	26.186	17.108	12.167	C.2	1	RES1	0.000	
14	 C33	25.940	18.631	14.149	C.3	1	RES1	0.000	
15	 C34	26.836	17.955	15.166	C.3	1	RES1	0.000	
16	 C35	27.372	19.004	16.135	C.3	1	RES1	0.000	
17	 C36	26.248	19.774	16.814	C.2	1	RES1	0.000	
18	 C37	24.798	19.388	14.833	C.2	1	RES1	0.000	
19	 C38	24.082	17.351	12.997	C.2	1	RES1	0.000	
@<TRIPOS>BOND
1 5 18 2
2 6 19 2
3 7 8 ar
4 7 12 ar
5 8 9 ar
6 9 10 ar
7 10 11 ar
8 11 12 ar
9 11 19 ar
10 12 13 ar
11 1 13 ar
12 3 13 2
13 1 14 1
14 14 15 1
15 14 18 1
16 15 16 1
17 16 17 1
18 2 17 1
19 4 17 2
20 2 18 1
21 1 19 ar
@<TRIPOS>SUBSTRUCTURE
1	RES1	1	GROUP	1 ****	RES
