# created with PyMOL 2.5.2
@<TRIPOS>MOLECULE
SHP2_7BQU_E3ligase
19 21 1                 
SMALL
USER_CHARGES
@<TRIPOS>ATOM
1	  N5	25.402	17.693	13.155	N.2	1	RES1	0.000	
2	  N6	25.075	19.883	16.105	N.pl3	1	RES1	0.000	
3	  O8	27.394	17.221	11.973	O.2	1	RES1	0.000	
4	  O9	26.386	20.295	17.899	O.2	1	RES1	0.000	
5	 O10	23.706	19.599	14.324	O.2	1	RES1	0.000	
6	 O11	23.076	17.708	13.608	O.2	1	RES1	0.000	
7	 C25	25.566	15.500	10.253	C.2	1	RES1	0.000	
8	 C26	24.481	14.830	9.682	C.2	1	RES1	0.000	
9	 C27	23.183	14.966	10.184	C.2	1	RES1	0.000	
10	 C28	22.932	15.788	11.269	C.2	1	RES1	0.000	
11	 C29	24.032	16.438	11.847	C.2	1	RES1	0.000	
12	 C30	25.305	16.279	11.356	C.2	1	RES1	0.000	
13	 C31	26.182	17.114	12.177	C.2	1	RES1	0.000	
14	 C32	25.924	18.631	14.128	C.3	1	RES1	0.000	
15	 C33	26.853	17.979	15.170	C.3	1	RES1	0.000	
16	 C34	27.393	19.034	16.080	C.3	1	RES1	0.000	
17	 C35	26.251	19.774	16.810	C.2	1	RES1	0.000	
18	 C36	24.792	19.369	14.837	C.2	1	RES1	0.000	
19	 C37	24.060	17.354	12.982	C.2	1	RES1	0.000	
@<TRIPOS>BOND
1 5 18 2
2 6 19 2
3 7 8 ar
4 7 12 ar
5 8 9 ar
6 9 10 ar
7 10 11 ar
8 11 12 ar
9 11 19 ar
10 12 13 ar
11 1 13 ar
12 3 13 2
13 1 14 1
14 14 15 1
15 14 18 1
16 15 16 1
17 16 17 1
18 2 17 1
19 4 17 2
20 2 18 1
21 1 19 ar
@<TRIPOS>SUBSTRUCTURE
1	RES1	1	GROUP	1 ****	RES
