# created with PyMOL 2.5.2
@<TRIPOS>MOLECULE
CDK6_6H0G_E3ligase
20 22 1                 
SMALL
USER_CHARGES
@<TRIPOS>ATOM
1	  N6	1.950	54.438	-85.636	N.pl3	1	RES1	0.000	
2	  O6	2.839	53.770	-82.861	O.2	1	RES1	0.000	
3	  N7	1.745	51.843	-82.110	N.2	1	RES1	0.000	
4	  O7	3.669	49.609	-77.454	O.3	1	RES1	0.000	
5	  N8	1.977	50.030	-78.918	N.pl3	1	RES1	0.000	
6	  O8	0.209	50.414	-80.254	O.2	1	RES1	0.000	
7	  O9	0.441	49.874	-82.206	O.2	1	RES1	0.000	
8	 C27	1.326	53.194	-85.466	C.2	1	RES1	0.000	
9	 C28	0.523	52.644	-86.440	C.2	1	RES1	0.000	
10	 C29	-0.169	51.445	-86.254	C.2	1	RES1	0.000	
11	 C30	-0.127	50.751	-85.040	C.2	1	RES1	0.000	
12	 C31	0.663	51.320	-84.016	C.2	1	RES1	0.000	
13	 C32	1.363	52.523	-84.244	C.2	1	RES1	0.000	
14	 C33	2.068	52.827	-83.007	C.2	1	RES1	0.000	
15	 C34	2.241	51.697	-80.703	C.3	1	RES1	0.000	
16	 C35	3.724	51.301	-80.645	C.3	1	RES1	0.000	
17	 C36	4.123	51.184	-79.183	C.3	1	RES1	0.000	
18	 C37	3.265	50.197	-78.443	C.3	1	RES1	0.000	
19	 C38	1.376	50.635	-80.000	C.2	1	RES1	0.000	
20	 C39	0.919	50.897	-82.685	C.2	1	RES1	0.000	
@<TRIPOS>BOND
1 1 8 1
2 8 9 ar
3 8 13 ar
4 9 10 ar
5 10 11 ar
6 11 12 ar
7 12 13 ar
8 12 20 ar
9 13 14 ar
10 2 14 2
11 3 14 ar
12 3 15 1
13 15 16 1
14 15 19 1
15 16 17 1
16 17 18 1
17 4 18 1
18 5 18 1
19 5 19 1
20 6 19 2
21 3 20 ar
22 7 20 2
@<TRIPOS>SUBSTRUCTURE
1	RES1	1	GROUP	1 ****	RES
