# created with PyMOL 2.5.2
@<TRIPOS>MOLECULE
SHP2_7BQU_E3ligase
19 21 1                 
SMALL
USER_CHARGES
@<TRIPOS>ATOM
1	  N5	25.401	17.691	13.147	N.2	1	RES1	0.000	
2	  N6	25.065	19.865	16.104	N.pl3	1	RES1	0.000	
3	  O9	27.396	17.202	11.969	O.2	1	RES1	0.000	
4	 O10	26.378	20.296	17.888	O.2	1	RES1	0.000	
5	 O11	23.697	19.580	14.328	O.2	1	RES1	0.000	
6	 O12	23.108	17.729	13.630	O.2	1	RES1	0.000	
7	 C26	25.562	15.488	10.237	C.2	1	RES1	0.000	
8	 C27	24.481	14.816	9.666	C.2	1	RES1	0.000	
9	 C28	23.182	14.969	10.187	C.2	1	RES1	0.000	
10	 C29	22.928	15.808	11.279	C.2	1	RES1	0.000	
11	 C30	24.020	16.437	11.838	C.2	1	RES1	0.000	
12	 C31	25.295	16.289	11.341	C.2	1	RES1	0.000	
13	 C32	26.187	17.126	12.177	C.2	1	RES1	0.000	
14	 C33	25.932	18.630	14.133	C.3	1	RES1	0.000	
15	 C34	26.852	17.988	15.166	C.3	1	RES1	0.000	
16	 C35	27.375	19.047	16.127	C.3	1	RES1	0.000	
17	 C36	26.248	19.760	16.806	C.2	1	RES1	0.000	
18	 C37	24.794	19.386	14.834	C.2	1	RES1	0.000	
19	 C38	24.094	17.349	12.982	C.2	1	RES1	0.000	
@<TRIPOS>BOND
1 4 17 2
2 5 18 2
3 6 19 2
4 7 8 ar
5 7 12 ar
6 8 9 ar
7 9 10 ar
8 10 11 ar
9 11 12 ar
10 11 19 ar
11 12 13 ar
12 1 13 ar
13 3 13 2
14 1 14 1
15 14 15 1
16 14 18 1
17 15 16 1
18 16 17 1
19 2 17 1
20 2 18 1
21 1 19 ar
@<TRIPOS>SUBSTRUCTURE
1	RES1	1	GROUP	1 ****	RES
