# created with PyMOL 2.5.2
@<TRIPOS>MOLECULE
SHP2_7BQU_E3ligase
19 21 1                 
SMALL
USER_CHARGES
@<TRIPOS>ATOM
1	  N5	25.419	17.690	13.148	N.2	1	RES1	0.000	
2	  N6	25.068	19.890	16.072	N.pl3	1	RES1	0.000	
3	  O9	27.387	17.222	11.953	O.2	1	RES1	0.000	
4	 O10	26.373	20.300	17.923	O.2	1	RES1	0.000	
5	 O11	23.727	19.591	14.279	O.2	1	RES1	0.000	
6	 O12	23.107	17.712	13.655	O.2	1	RES1	0.000	
7	 C25	25.565	15.504	10.233	C.2	1	RES1	0.000	
8	 C26	24.470	14.836	9.651	C.2	1	RES1	0.000	
9	 C27	23.191	14.961	10.160	C.2	1	RES1	0.000	
10	 C28	22.910	15.781	11.308	C.2	1	RES1	0.000	
11	 C29	24.016	16.434	11.849	C.2	1	RES1	0.000	
12	 C30	25.281	16.292	11.350	C.2	1	RES1	0.000	
13	 C31	26.212	17.113	12.159	C.2	1	RES1	0.000	
14	 C32	25.944	18.616	14.146	C.3	1	RES1	0.000	
15	 C33	26.841	17.976	15.174	C.3	1	RES1	0.000	
16	 C34	27.370	19.006	16.155	C.3	1	RES1	0.000	
17	 C35	26.228	19.785	16.807	C.2	1	RES1	0.000	
18	 C36	24.813	19.386	14.832	C.2	1	RES1	0.000	
19	 C37	24.073	17.357	12.985	C.2	1	RES1	0.000	
@<TRIPOS>BOND
1 4 17 2
2 5 18 2
3 6 19 2
4 7 8 ar
5 7 12 ar
6 8 9 ar
7 9 10 ar
8 10 11 ar
9 11 12 ar
10 11 19 ar
11 12 13 ar
12 1 13 ar
13 3 13 2
14 1 14 1
15 14 15 1
16 14 18 1
17 15 16 1
18 16 17 1
19 2 17 1
20 2 18 1
21 1 19 ar
@<TRIPOS>SUBSTRUCTURE
1	RES1	1	GROUP	1 ****	RES
