# created with PyMOL 2.5.2
@<TRIPOS>MOLECULE
SHP2_7BQU_E3ligase
19 21 1                 
SMALL
USER_CHARGES
@<TRIPOS>ATOM
1	  N6	25.375	17.704	13.150	N.2	1	RES1	0.000	
2	  N7	25.097	19.885	16.088	N.pl3	1	RES1	0.000	
3	  O9	27.369	17.235	11.975	O.2	1	RES1	0.000	
4	 O10	26.407	20.271	17.900	O.2	1	RES1	0.000	
5	 O11	23.713	19.600	14.309	O.2	1	RES1	0.000	
6	 O12	23.072	17.672	13.635	O.2	1	RES1	0.000	
7	 C30	25.577	15.505	10.266	C.2	1	RES1	0.000	
8	 C31	24.509	14.820	9.687	C.2	1	RES1	0.000	
9	 C32	23.202	14.945	10.160	C.2	1	RES1	0.000	
10	 C33	22.943	15.756	11.285	C.2	1	RES1	0.000	
11	 C34	24.002	16.441	11.844	C.2	1	RES1	0.000	
12	 C35	25.278	16.300	11.356	C.2	1	RES1	0.000	
13	 C36	26.188	17.138	12.165	C.2	1	RES1	0.000	
14	 C37	25.914	18.664	14.140	C.3	1	RES1	0.000	
15	 C38	26.840	17.976	15.147	C.3	1	RES1	0.000	
16	 C39	27.388	19.022	16.133	C.3	1	RES1	0.000	
17	 C40	26.271	19.749	16.794	C.2	1	RES1	0.000	
18	 C41	24.786	19.405	14.843	C.2	1	RES1	0.000	
19	 C42	24.062	17.365	12.962	C.2	1	RES1	0.000	
@<TRIPOS>BOND
1 4 17 2
2 5 18 2
3 6 19 2
4 7 8 ar
5 7 12 ar
6 8 9 ar
7 9 10 ar
8 10 11 ar
9 11 12 ar
10 11 19 ar
11 12 13 ar
12 1 13 ar
13 3 13 2
14 1 14 1
15 14 15 1
16 14 18 1
17 15 16 1
18 16 17 1
19 2 17 1
20 2 18 1
21 1 19 ar
@<TRIPOS>SUBSTRUCTURE
1	RES1	1	GROUP	1 ****	RES
