# created with PyMOL 2.5.2
@<TRIPOS>MOLECULE
SHP2_7BQU_E3ligase
19 21 1                 
SMALL
USER_CHARGES
@<TRIPOS>ATOM
1	  N6	25.421	17.689	13.142	N.2	1	RES1	0.000	
2	  N7	25.063	19.903	16.058	N.pl3	1	RES1	0.000	
3	  O9	27.400	17.213	11.948	O.2	1	RES1	0.000	
4	 O10	26.334	20.311	17.896	O.2	1	RES1	0.000	
5	 O11	23.758	19.615	14.251	O.2	1	RES1	0.000	
6	 O12	23.111	17.665	13.653	O.2	1	RES1	0.000	
7	 C30	25.540	15.518	10.244	C.2	1	RES1	0.000	
8	 C31	24.465	14.834	9.653	C.2	1	RES1	0.000	
9	 C32	23.170	14.994	10.164	C.2	1	RES1	0.000	
10	 C33	22.919	15.803	11.288	C.2	1	RES1	0.000	
11	 C34	24.019	16.438	11.876	C.2	1	RES1	0.000	
12	 C35	25.289	16.303	11.338	C.2	1	RES1	0.000	
13	 C36	26.203	17.109	12.184	C.2	1	RES1	0.000	
14	 C37	25.950	18.619	14.159	C.3	1	RES1	0.000	
15	 C38	26.834	17.952	15.211	C.3	1	RES1	0.000	
16	 C39	27.364	18.993	16.172	C.3	1	RES1	0.000	
17	 C40	26.233	19.763	16.812	C.2	1	RES1	0.000	
18	 C41	24.819	19.412	14.783	C.2	1	RES1	0.000	
19	 C42	24.104	17.321	13.008	C.2	1	RES1	0.000	
@<TRIPOS>BOND
1 4 17 2
2 5 18 2
3 6 19 2
4 7 8 ar
5 7 12 ar
6 8 9 ar
7 9 10 ar
8 10 11 ar
9 11 12 ar
10 11 19 ar
11 12 13 ar
12 1 13 ar
13 3 13 2
14 1 14 1
15 14 15 1
16 14 18 1
17 15 16 1
18 16 17 1
19 2 17 1
20 2 18 1
21 1 19 ar
@<TRIPOS>SUBSTRUCTURE
1	RES1	1	GROUP	1 ****	RES
