# created with PyMOL 2.5.2
@<TRIPOS>MOLECULE
SHP2_7BQU_E3ligase
19 21 1                 
SMALL
USER_CHARGES
@<TRIPOS>ATOM
1	  N6	25.412	17.700	13.150	N.2	1	RES1	0.000	
2	  N7	25.075	19.891	16.092	N.pl3	1	RES1	0.000	
3	 O11	27.387	17.205	11.972	O.2	1	RES1	0.000	
4	 O12	26.372	20.308	17.897	O.2	1	RES1	0.000	
5	 O13	23.733	19.593	14.287	O.2	1	RES1	0.000	
6	 O14	23.105	17.702	13.649	O.2	1	RES1	0.000	
7	 C34	25.548	15.496	10.245	C.2	1	RES1	0.000	
8	 C35	24.483	14.835	9.634	C.2	1	RES1	0.000	
9	 C36	23.179	14.962	10.168	C.2	1	RES1	0.000	
10	 C37	22.918	15.797	11.285	C.2	1	RES1	0.000	
11	 C38	24.030	16.430	11.850	C.2	1	RES1	0.000	
12	 C39	25.291	16.304	11.357	C.2	1	RES1	0.000	
13	 C40	26.189	17.113	12.167	C.2	1	RES1	0.000	
14	 C41	25.933	18.633	14.137	C.3	1	RES1	0.000	
15	 C42	26.850	17.947	15.177	C.3	1	RES1	0.000	
16	 C43	27.370	19.026	16.151	C.3	1	RES1	0.000	
17	 C44	26.241	19.781	16.811	C.2	1	RES1	0.000	
18	 C45	24.794	19.393	14.826	C.2	1	RES1	0.000	
19	 C46	24.085	17.337	12.983	C.2	1	RES1	0.000	
@<TRIPOS>BOND
1 3 13 2
2 4 17 2
3 5 18 2
4 6 19 2
5 7 8 ar
6 7 12 ar
7 8 9 ar
8 9 10 ar
9 10 11 ar
10 11 12 ar
11 11 19 ar
12 12 13 ar
13 1 13 ar
14 1 14 1
15 14 15 1
16 14 18 1
17 15 16 1
18 16 17 1
19 2 17 1
20 2 18 1
21 1 19 ar
@<TRIPOS>SUBSTRUCTURE
1	RES1	1	GROUP	1 ****	RES
