# created with PyMOL 2.5.2
@<TRIPOS>MOLECULE
SHP2_7BQU_E3ligase
19 21 1                 
SMALL
USER_CHARGES
@<TRIPOS>ATOM
1	  N6	25.402	17.676	13.145	N.2	1	RES1	0.000	
2	  N7	25.102	19.894	16.099	N.pl3	1	RES1	0.000	
3	 O11	27.386	17.198	11.991	O.2	1	RES1	0.000	
4	 O12	26.400	20.303	17.896	O.2	1	RES1	0.000	
5	 O13	23.687	19.560	14.322	O.2	1	RES1	0.000	
6	 O14	23.083	17.707	13.597	O.2	1	RES1	0.000	
7	 C34	25.572	15.494	10.262	C.2	1	RES1	0.000	
8	 C35	24.474	14.824	9.671	C.2	1	RES1	0.000	
9	 C36	23.190	14.965	10.171	C.2	1	RES1	0.000	
10	 C37	22.941	15.796	11.267	C.2	1	RES1	0.000	
11	 C38	24.004	16.448	11.839	C.2	1	RES1	0.000	
12	 C39	25.310	16.305	11.356	C.2	1	RES1	0.000	
13	 C40	26.159	17.113	12.170	C.2	1	RES1	0.000	
14	 C41	25.922	18.640	14.147	C.3	1	RES1	0.000	
15	 C42	26.851	17.977	15.160	C.3	1	RES1	0.000	
16	 C43	27.391	19.051	16.114	C.3	1	RES1	0.000	
17	 C44	26.263	19.785	16.809	C.2	1	RES1	0.000	
18	 C45	24.767	19.355	14.847	C.2	1	RES1	0.000	
19	 C46	24.090	17.362	12.977	C.2	1	RES1	0.000	
@<TRIPOS>BOND
1 3 13 2
2 4 17 2
3 5 18 2
4 6 19 2
5 7 8 ar
6 7 12 ar
7 8 9 ar
8 9 10 ar
9 10 11 ar
10 11 12 ar
11 11 19 ar
12 12 13 ar
13 1 13 ar
14 1 14 1
15 14 15 1
16 14 18 1
17 15 16 1
18 16 17 1
19 2 17 1
20 2 18 1
21 1 19 ar
@<TRIPOS>SUBSTRUCTURE
1	RES1	1	GROUP	1 ****	RES
