# created with PyMOL 2.5.2
@<TRIPOS>MOLECULE
SHP2_7BQU_E3ligase
19 21 1                 
SMALL
USER_CHARGES
@<TRIPOS>ATOM
1	  N6	25.423	17.705	13.133	N.2	1	RES1	0.000	
2	  N7	25.052	19.884	16.097	N.pl3	1	RES1	0.000	
3	 O13	27.389	17.214	11.943	O.2	1	RES1	0.000	
4	 O14	26.339	20.280	17.897	O.2	1	RES1	0.000	
5	 O15	23.718	19.576	14.280	O.2	1	RES1	0.000	
6	 O16	23.110	17.734	13.629	O.2	1	RES1	0.000	
7	 C38	25.551	15.488	10.260	C.2	1	RES1	0.000	
8	 C39	24.479	14.818	9.651	C.2	1	RES1	0.000	
9	 C40	23.193	14.974	10.189	C.2	1	RES1	0.000	
10	 C41	22.919	15.791	11.302	C.2	1	RES1	0.000	
11	 C42	24.016	16.445	11.856	C.2	1	RES1	0.000	
12	 C43	25.265	16.313	11.340	C.2	1	RES1	0.000	
13	 C44	26.202	17.118	12.157	C.2	1	RES1	0.000	
14	 C45	25.961	18.631	14.137	C.3	1	RES1	0.000	
15	 C46	26.850	17.982	15.179	C.3	1	RES1	0.000	
16	 C47	27.384	19.021	16.148	C.3	1	RES1	0.000	
17	 C48	26.234	19.762	16.804	C.2	1	RES1	0.000	
18	 C49	24.802	19.357	14.837	C.2	1	RES1	0.000	
19	 C50	24.107	17.361	13.000	C.2	1	RES1	0.000	
@<TRIPOS>BOND
1 3 13 2
2 4 17 2
3 5 18 2
4 6 19 2
5 7 8 ar
6 7 12 ar
7 8 9 ar
8 9 10 ar
9 10 11 ar
10 11 12 ar
11 11 19 ar
12 12 13 ar
13 1 13 ar
14 1 14 1
15 14 15 1
16 14 18 1
17 15 16 1
18 16 17 1
19 2 17 1
20 2 18 1
21 1 19 ar
@<TRIPOS>SUBSTRUCTURE
1	RES1	1	GROUP	1 ****	RES
