# created with PyMOL 2.5.2
@<TRIPOS>MOLECULE
SHP2_7BQU_E3ligase
19 21 1                 
SMALL
USER_CHARGES
@<TRIPOS>ATOM
1	  N6	25.411	17.727	13.129	N.2	1	RES1	0.000	
2	  N7	25.071	19.835	16.108	N.pl3	1	RES1	0.000	
3	 O13	27.368	17.209	11.976	O.2	1	RES1	0.000	
4	 O14	26.368	20.264	17.897	O.2	1	RES1	0.000	
5	 O15	23.687	19.566	14.315	O.2	1	RES1	0.000	
6	 O16	23.104	17.728	13.621	O.2	1	RES1	0.000	
7	 C38	25.571	15.490	10.260	C.2	1	RES1	0.000	
8	 C39	24.485	14.814	9.681	C.2	1	RES1	0.000	
9	 C40	23.178	14.963	10.184	C.2	1	RES1	0.000	
10	 C41	22.934	15.763	11.287	C.2	1	RES1	0.000	
11	 C42	24.020	16.448	11.856	C.2	1	RES1	0.000	
12	 C43	25.290	16.314	11.350	C.2	1	RES1	0.000	
13	 C44	26.191	17.140	12.145	C.2	1	RES1	0.000	
14	 C45	25.949	18.661	14.121	C.3	1	RES1	0.000	
15	 C46	26.867	18.008	15.169	C.3	1	RES1	0.000	
16	 C47	27.374	19.049	16.117	C.3	1	RES1	0.000	
17	 C48	26.243	19.754	16.803	C.2	1	RES1	0.000	
18	 C49	24.807	19.356	14.841	C.2	1	RES1	0.000	
19	 C50	24.076	17.364	12.981	C.2	1	RES1	0.000	
@<TRIPOS>BOND
1 3 13 2
2 4 17 2
3 5 18 2
4 6 19 2
5 7 8 ar
6 7 12 ar
7 8 9 ar
8 9 10 ar
9 10 11 ar
10 11 12 ar
11 11 19 ar
12 12 13 ar
13 1 13 ar
14 1 14 1
15 14 15 1
16 14 18 1
17 15 16 1
18 16 17 1
19 2 17 1
20 2 18 1
21 1 19 ar
@<TRIPOS>SUBSTRUCTURE
1	RES1	1	GROUP	1 ****	RES
