# created with PyMOL 2.5.2
@<TRIPOS>MOLECULE
JAK2_6H0G_E3ligase
20 22 1                 
SMALL
USER_CHARGES
@<TRIPOS>ATOM
1	  O2	2.793	53.749	-82.822	O.2	1	RES1	0.000	
2	  O3	3.703	49.694	-77.415	O.2	1	RES1	0.000	
3	  O4	0.206	50.436	-80.183	O.2	1	RES1	0.000	
4	  N5	1.987	54.440	-85.576	N.pl3	1	RES1	0.000	
5	  O5	0.423	49.816	-82.251	O.2	1	RES1	0.000	
6	  N6	1.714	51.767	-82.113	N.2	1	RES1	0.000	
7	  N7	1.995	50.089	-78.870	N.pl3	1	RES1	0.000	
8	 C17	1.331	53.202	-85.454	C.2	1	RES1	0.000	
9	 C18	0.528	52.677	-86.456	C.2	1	RES1	0.000	
10	 C19	-0.170	51.485	-86.317	C.2	1	RES1	0.000	
11	 C20	-0.119	50.785	-85.092	C.2	1	RES1	0.000	
12	 C21	0.677	51.333	-84.076	C.2	1	RES1	0.000	
13	 C22	1.358	52.491	-84.234	C.2	1	RES1	0.000	
14	 C23	2.044	52.790	-83.001	C.2	1	RES1	0.000	
15	 C24	2.227	51.627	-80.745	C.3	1	RES1	0.000	
16	 C25	3.697	51.246	-80.679	C.3	1	RES1	0.000	
17	 C26	4.140	51.199	-79.213	C.3	1	RES1	0.000	
18	 C27	3.303	50.245	-78.414	C.2	1	RES1	0.000	
19	 C28	1.399	50.662	-79.954	C.2	1	RES1	0.000	
20	 C29	0.890	50.859	-82.701	C.2	1	RES1	0.000	
@<TRIPOS>BOND
1 1 14 2
2 4 8 1
3 8 9 ar
4 8 13 ar
5 9 10 ar
6 10 11 ar
7 11 12 ar
8 12 13 ar
9 12 20 ar
10 13 14 ar
11 6 14 ar
12 6 15 1
13 15 16 1
14 15 19 1
15 16 17 1
16 17 18 1
17 2 18 2
18 7 18 1
19 3 19 2
20 7 19 1
21 5 20 2
22 6 20 ar
@<TRIPOS>SUBSTRUCTURE
1	RES1	1	GROUP	1 ****	RES
