# created with PyMOL 2.5.2
@<TRIPOS>MOLECULE
JAK2_6H0G_E3ligase
20 22 1                 
SMALL
USER_CHARGES
@<TRIPOS>ATOM
1	  O2	2.798	53.759	-82.839	O.2	1	RES1	0.000	
2	  O3	3.699	49.692	-77.411	O.2	1	RES1	0.000	
3	  O4	0.215	50.435	-80.187	O.2	1	RES1	0.000	
4	  N5	1.972	54.437	-85.585	N.pl3	1	RES1	0.000	
5	  O5	0.431	49.831	-82.276	O.2	1	RES1	0.000	
6	  N6	1.703	51.779	-82.117	N.2	1	RES1	0.000	
7	  N7	1.993	50.087	-78.851	N.pl3	1	RES1	0.000	
8	 C19	1.345	53.197	-85.433	C.2	1	RES1	0.000	
9	 C20	0.530	52.669	-86.461	C.2	1	RES1	0.000	
10	 C21	-0.174	51.454	-86.295	C.2	1	RES1	0.000	
11	 C22	-0.122	50.786	-85.085	C.2	1	RES1	0.000	
12	 C23	0.678	51.337	-84.087	C.2	1	RES1	0.000	
13	 C24	1.339	52.508	-84.231	C.2	1	RES1	0.000	
14	 C25	2.059	52.793	-82.988	C.2	1	RES1	0.000	
15	 C26	2.222	51.635	-80.726	C.3	1	RES1	0.000	
16	 C27	3.698	51.231	-80.675	C.3	1	RES1	0.000	
17	 C28	4.162	51.187	-79.225	C.3	1	RES1	0.000	
18	 C29	3.291	50.245	-78.423	C.2	1	RES1	0.000	
19	 C30	1.383	50.663	-79.953	C.2	1	RES1	0.000	
20	 C31	0.901	50.869	-82.719	C.2	1	RES1	0.000	
@<TRIPOS>BOND
1 1 14 2
2 4 8 1
3 8 9 ar
4 8 13 ar
5 9 10 ar
6 10 11 ar
7 11 12 ar
8 12 13 ar
9 12 20 ar
10 13 14 ar
11 6 14 ar
12 6 15 1
13 15 16 1
14 15 19 1
15 16 17 1
16 17 18 1
17 2 18 2
18 7 18 1
19 3 19 2
20 7 19 1
21 5 20 2
22 6 20 ar
@<TRIPOS>SUBSTRUCTURE
1	RES1	1	GROUP	1 ****	RES
