# created with PyMOL 2.5.2
@<TRIPOS>MOLECULE
BRD4_4TZ4_E3ligase
19 21 1                 
SMALL
USER_CHARGES
@<TRIPOS>ATOM
1	  O2	-46.521	50.066	-94.895	O.2	1	RES1	0.000	
2	  O3	-43.307	53.191	-95.582	O.2	1	RES1	0.000	
3	  O4	-43.706	55.243	-94.415	O.2	1	RES1	0.000	
4	  N5	-46.186	59.123	-98.142	N.pl3	1	RES1	0.000	
5	  N6	-45.154	55.237	-96.263	N.2	1	RES1	0.000	
6	  N7	-44.962	51.679	-95.248	N.pl3	1	RES1	0.000	
7	 C18	-45.400	58.824	-96.999	C.2	1	RES1	0.000	
8	 C19	-44.691	59.837	-96.382	C.2	1	RES1	0.000	
9	 C20	-43.815	59.570	-95.307	C.2	1	RES1	0.000	
10	 C21	-43.654	58.244	-94.858	C.2	1	RES1	0.000	
11	 C22	-44.350	57.240	-95.537	C.2	1	RES1	0.000	
12	 C23	-45.187	57.514	-96.593	C.2	1	RES1	0.000	
13	 C24	-45.786	56.244	-97.092	C.2	1	RES1	0.000	
14	 C25	-45.533	53.827	-96.307	C.3	1	RES1	0.000	
15	 C26	-46.907	53.588	-95.705	C.3	1	RES1	0.000	
16	 C27	-47.298	52.103	-95.854	C.3	1	RES1	0.000	
17	 C28	-46.241	51.185	-95.278	C.2	1	RES1	0.000	
18	 C29	-44.475	52.904	-95.652	C.2	1	RES1	0.000	
19	 C30	-44.346	55.805	-95.313	C.2	1	RES1	0.000	
@<TRIPOS>BOND
1 1 17 2
2 4 7 1
3 7 8 ar
4 7 12 ar
5 8 9 ar
6 9 10 ar
7 10 11 ar
8 11 12 ar
9 11 19 ar
10 12 13 ar
11 5 13 ar
12 5 14 1
13 14 15 1
14 14 18 1
15 15 16 1
16 16 17 1
17 6 17 1
18 2 18 2
19 6 18 1
20 3 19 2
21 5 19 ar
@<TRIPOS>SUBSTRUCTURE
1	RES1	1	GROUP	1 ****	RES
