# created with PyMOL 2.5.2
@<TRIPOS>MOLECULE
JAK2_6H0G_E3ligase
20 22 1                 
SMALL
USER_CHARGES
@<TRIPOS>ATOM
1	  O2	2.785	53.767	-82.804	O.2	1	RES1	0.000	
2	  O3	3.724	49.671	-77.437	O.2	1	RES1	0.000	
3	  O4	0.172	50.488	-80.167	O.2	1	RES1	0.000	
4	  N5	1.958	54.457	-85.585	N.pl3	1	RES1	0.000	
5	  O5	0.443	49.804	-82.274	O.2	1	RES1	0.000	
6	  N6	1.707	51.791	-82.112	N.2	1	RES1	0.000	
7	  N7	1.990	50.108	-78.853	N.pl3	1	RES1	0.000	
8	 C16	1.324	53.215	-85.440	C.2	1	RES1	0.000	
9	 C17	0.545	52.655	-86.459	C.2	1	RES1	0.000	
10	 C18	-0.163	51.471	-86.304	C.2	1	RES1	0.000	
11	 C19	-0.091	50.753	-85.085	C.2	1	RES1	0.000	
12	 C20	0.681	51.336	-84.075	C.2	1	RES1	0.000	
13	 C21	1.345	52.508	-84.238	C.2	1	RES1	0.000	
14	 C22	2.046	52.801	-83.001	C.2	1	RES1	0.000	
15	 C23	2.222	51.643	-80.740	C.3	1	RES1	0.000	
16	 C24	3.714	51.234	-80.700	C.3	1	RES1	0.000	
17	 C25	4.161	51.144	-79.247	C.3	1	RES1	0.000	
18	 C26	3.278	50.229	-78.412	C.2	1	RES1	0.000	
19	 C27	1.385	50.677	-79.924	C.2	1	RES1	0.000	
20	 C28	0.902	50.841	-82.708	C.2	1	RES1	0.000	
@<TRIPOS>BOND
1 1 14 2
2 4 8 1
3 8 9 ar
4 8 13 ar
5 9 10 ar
6 10 11 ar
7 11 12 ar
8 12 13 ar
9 12 20 ar
10 13 14 ar
11 6 14 ar
12 6 15 1
13 15 16 1
14 15 19 1
15 16 17 1
16 17 18 1
17 2 18 2
18 7 18 1
19 3 19 2
20 7 19 1
21 5 20 2
22 6 20 ar
@<TRIPOS>SUBSTRUCTURE
1	RES1	1	GROUP	1 ****	RES
