# created with PyMOL 2.5.2
@<TRIPOS>MOLECULE
JAK2_6H0G_E3ligase
20 22 1                 
SMALL
USER_CHARGES
@<TRIPOS>ATOM
1	  O2	2.817	53.737	-82.840	O.2	1	RES1	0.000	
2	  O3	3.677	49.693	-77.404	O.2	1	RES1	0.000	
3	  O4	0.200	50.477	-80.197	O.2	1	RES1	0.000	
4	  N5	1.962	54.442	-85.594	N.pl3	1	RES1	0.000	
5	  O5	0.436	49.811	-82.279	O.2	1	RES1	0.000	
6	  N6	1.720	51.781	-82.129	N.2	1	RES1	0.000	
7	  N7	1.989	50.071	-78.848	N.pl3	1	RES1	0.000	
8	 C18	1.332	53.200	-85.458	C.2	1	RES1	0.000	
9	 C19	0.519	52.696	-86.470	C.2	1	RES1	0.000	
10	 C20	-0.184	51.482	-86.274	C.2	1	RES1	0.000	
11	 C21	-0.113	50.788	-85.077	C.2	1	RES1	0.000	
12	 C22	0.673	51.338	-84.058	C.2	1	RES1	0.000	
13	 C23	1.355	52.489	-84.241	C.2	1	RES1	0.000	
14	 C24	2.055	52.776	-83.000	C.2	1	RES1	0.000	
15	 C25	2.241	51.635	-80.747	C.3	1	RES1	0.000	
16	 C26	3.720	51.231	-80.664	C.3	1	RES1	0.000	
17	 C27	4.146	51.178	-79.229	C.3	1	RES1	0.000	
18	 C28	3.295	50.258	-78.419	C.2	1	RES1	0.000	
19	 C29	1.382	50.662	-79.922	C.2	1	RES1	0.000	
20	 C30	0.904	50.848	-82.716	C.2	1	RES1	0.000	
@<TRIPOS>BOND
1 1 14 2
2 4 8 1
3 8 9 ar
4 8 13 ar
5 9 10 ar
6 10 11 ar
7 11 12 ar
8 12 13 ar
9 12 20 ar
10 13 14 ar
11 6 14 ar
12 6 15 1
13 15 16 1
14 15 19 1
15 16 17 1
16 17 18 1
17 2 18 2
18 7 18 1
19 3 19 2
20 7 19 1
21 5 20 2
22 6 20 ar
@<TRIPOS>SUBSTRUCTURE
1	RES1	1	GROUP	1 ****	RES
