# created with PyMOL 2.5.2
@<TRIPOS>MOLECULE
JAK2_6H0G_E3ligase
20 22 1                 
SMALL
USER_CHARGES
@<TRIPOS>ATOM
1	  O3	2.808	53.757	-82.837	O.2	1	RES1	0.000	
2	  O4	3.673	49.632	-77.438	O.3	1	RES1	0.000	
3	  N5	1.987	54.420	-85.627	N.pl3	1	RES1	0.000	
4	  O5	0.197	50.421	-80.243	O.2	1	RES1	0.000	
5	  N6	1.747	51.823	-82.099	N.2	1	RES1	0.000	
6	  O6	0.447	49.830	-82.223	O.2	1	RES1	0.000	
7	  N7	1.982	50.049	-78.895	N.pl3	1	RES1	0.000	
8	 C17	1.341	53.216	-85.445	C.2	1	RES1	0.000	
9	 C18	0.524	52.664	-86.480	C.2	1	RES1	0.000	
10	 C19	-0.204	51.453	-86.272	C.2	1	RES1	0.000	
11	 C20	-0.136	50.778	-85.059	C.2	1	RES1	0.000	
12	 C21	0.674	51.333	-84.038	C.2	1	RES1	0.000	
13	 C22	1.355	52.513	-84.236	C.2	1	RES1	0.000	
14	 C23	2.056	52.801	-82.988	C.2	1	RES1	0.000	
15	 C24	2.237	51.679	-80.732	C.3	1	RES1	0.000	
16	 C25	3.726	51.291	-80.661	C.3	1	RES1	0.000	
17	 C26	4.126	51.197	-79.194	C.3	1	RES1	0.000	
18	 C27	3.279	50.209	-78.437	C.3	1	RES1	0.000	
19	 C28	1.392	50.662	-79.973	C.2	1	RES1	0.000	
20	 C29	0.913	50.864	-82.690	C.2	1	RES1	0.000	
@<TRIPOS>BOND
1 3 8 1
2 8 9 ar
3 8 13 ar
4 9 10 ar
5 10 11 ar
6 11 12 ar
7 12 13 ar
8 12 20 ar
9 13 14 ar
10 1 14 2
11 5 14 ar
12 5 15 1
13 15 16 1
14 15 19 1
15 16 17 1
16 17 18 1
17 2 18 1
18 7 18 1
19 4 19 2
20 7 19 1
21 5 20 ar
22 6 20 2
@<TRIPOS>SUBSTRUCTURE
1	RES1	1	GROUP	1 ****	RES
