# created with PyMOL 2.5.2
@<TRIPOS>MOLECULE
JAK2_6H0G_E3ligase
20 22 1                 
SMALL
USER_CHARGES
@<TRIPOS>ATOM
1	  N5	1.971	54.456	-85.607	N.pl3	1	RES1	0.000	
2	  N6	1.729	51.823	-82.110	N.2	1	RES1	0.000	
3	  N7	1.992	50.050	-78.888	N.pl3	1	RES1	0.000	
4	  O8	2.788	53.770	-82.862	O.2	1	RES1	0.000	
5	  O9	3.695	49.629	-77.450	O.3	1	RES1	0.000	
6	 O10	0.204	50.456	-80.222	O.2	1	RES1	0.000	
7	 O11	0.442	49.830	-82.234	O.2	1	RES1	0.000	
8	 C27	1.335	53.201	-85.434	C.2	1	RES1	0.000	
9	 C28	0.525	52.661	-86.463	C.2	1	RES1	0.000	
10	 C29	-0.161	51.444	-86.275	C.2	1	RES1	0.000	
11	 C30	-0.112	50.758	-85.064	C.2	1	RES1	0.000	
12	 C31	0.671	51.333	-84.048	C.2	1	RES1	0.000	
13	 C32	1.356	52.509	-84.228	C.2	1	RES1	0.000	
14	 C33	2.044	52.805	-83.008	C.2	1	RES1	0.000	
15	 C34	2.228	51.673	-80.731	C.3	1	RES1	0.000	
16	 C35	3.708	51.275	-80.666	C.3	1	RES1	0.000	
17	 C36	4.138	51.175	-79.200	C.3	1	RES1	0.000	
18	 C37	3.274	50.220	-78.439	C.3	1	RES1	0.000	
19	 C38	1.380	50.659	-79.955	C.2	1	RES1	0.000	
20	 C39	0.918	50.866	-82.682	C.2	1	RES1	0.000	
@<TRIPOS>BOND
1 6 19 2
2 7 20 2
3 1 8 1
4 8 9 ar
5 8 13 ar
6 9 10 ar
7 10 11 ar
8 11 12 ar
9 12 13 ar
10 12 20 ar
11 13 14 ar
12 2 14 ar
13 4 14 2
14 2 15 1
15 15 16 1
16 15 19 1
17 16 17 1
18 17 18 1
19 3 18 1
20 5 18 1
21 3 19 1
22 2 20 ar
@<TRIPOS>SUBSTRUCTURE
1	RES1	1	GROUP	1 ****	RES
