# created with PyMOL 2.5.2
@<TRIPOS>MOLECULE
JAK2_6H0G_E3ligase
20 22 1                 
SMALL
USER_CHARGES
@<TRIPOS>ATOM
1	  N5	1.971	54.439	-85.608	N.pl3	1	RES1	0.000	
2	  N6	1.726	51.773	-82.105	N.2	1	RES1	0.000	
3	  N7	1.980	50.092	-78.855	N.pl3	1	RES1	0.000	
4	  O7	2.823	53.747	-82.847	O.2	1	RES1	0.000	
5	  O8	3.701	49.692	-77.419	O.2	1	RES1	0.000	
6	  O9	0.203	50.434	-80.190	O.2	1	RES1	0.000	
7	 O10	0.432	49.836	-82.259	O.2	1	RES1	0.000	
8	 C25	1.339	53.198	-85.434	C.2	1	RES1	0.000	
9	 C26	0.528	52.692	-86.467	C.2	1	RES1	0.000	
10	 C27	-0.179	51.481	-86.279	C.2	1	RES1	0.000	
11	 C28	-0.124	50.760	-85.097	C.2	1	RES1	0.000	
12	 C29	0.650	51.343	-84.080	C.2	1	RES1	0.000	
13	 C30	1.346	52.501	-84.252	C.2	1	RES1	0.000	
14	 C31	2.058	52.784	-82.987	C.2	1	RES1	0.000	
15	 C32	2.235	51.637	-80.753	C.3	1	RES1	0.000	
16	 C33	3.714	51.248	-80.670	C.3	1	RES1	0.000	
17	 C34	4.160	51.187	-79.206	C.3	1	RES1	0.000	
18	 C35	3.277	50.233	-78.408	C.2	1	RES1	0.000	
19	 C36	1.380	50.653	-79.943	C.2	1	RES1	0.000	
20	 C37	0.904	50.861	-82.707	C.2	1	RES1	0.000	
@<TRIPOS>BOND
1 7 20 2
2 1 8 1
3 8 9 ar
4 8 13 ar
5 9 10 ar
6 10 11 ar
7 11 12 ar
8 12 13 ar
9 12 20 ar
10 13 14 ar
11 2 14 ar
12 4 14 2
13 2 15 1
14 15 16 1
15 15 19 1
16 16 17 1
17 17 18 1
18 3 18 1
19 5 18 2
20 3 19 1
21 6 19 2
22 2 20 ar
@<TRIPOS>SUBSTRUCTURE
1	RES1	1	GROUP	1 ****	RES
