# created with PyMOL 2.5.2
@<TRIPOS>MOLECULE
JAK2_6H0G_E3ligase
20 22 1                 
SMALL
USER_CHARGES
@<TRIPOS>ATOM
1	  N5	1.979	54.442	-85.601	N.pl3	1	RES1	0.000	
2	  N6	1.739	51.787	-82.102	N.2	1	RES1	0.000	
3	  O6	2.806	53.757	-82.841	O.2	1	RES1	0.000	
4	  N7	1.985	50.087	-78.882	N.pl3	1	RES1	0.000	
5	  O7	3.673	49.665	-77.419	O.3	1	RES1	0.000	
6	  O8	0.210	50.434	-80.203	O.2	1	RES1	0.000	
7	  O9	0.437	49.830	-82.247	O.2	1	RES1	0.000	
8	 C23	1.335	53.192	-85.448	C.2	1	RES1	0.000	
9	 C24	0.523	52.679	-86.461	C.2	1	RES1	0.000	
10	 C25	-0.185	51.467	-86.291	C.2	1	RES1	0.000	
11	 C26	-0.116	50.784	-85.065	C.2	1	RES1	0.000	
12	 C27	0.656	51.341	-84.054	C.2	1	RES1	0.000	
13	 C28	1.343	52.498	-84.235	C.2	1	RES1	0.000	
14	 C29	2.055	52.788	-83.011	C.2	1	RES1	0.000	
15	 C30	2.245	51.645	-80.729	C.3	1	RES1	0.000	
16	 C31	3.717	51.256	-80.670	C.3	1	RES1	0.000	
17	 C32	4.160	51.177	-79.208	C.3	1	RES1	0.000	
18	 C33	3.281	50.235	-78.430	C.3	1	RES1	0.000	
19	 C34	1.371	50.663	-79.954	C.2	1	RES1	0.000	
20	 C35	0.910	50.864	-82.715	C.2	1	RES1	0.000	
@<TRIPOS>BOND
1 1 8 1
2 8 9 ar
3 8 13 ar
4 9 10 ar
5 10 11 ar
6 11 12 ar
7 12 13 ar
8 12 20 ar
9 13 14 ar
10 2 14 ar
11 3 14 2
12 2 15 1
13 15 16 1
14 15 19 1
15 16 17 1
16 17 18 1
17 4 18 1
18 5 18 1
19 4 19 1
20 6 19 2
21 2 20 ar
22 7 20 2
@<TRIPOS>SUBSTRUCTURE
1	RES1	1	GROUP	1 ****	RES
