# created with PyMOL 2.5.2
@<TRIPOS>MOLECULE
JAK2_6H0G_E3ligase
20 22 1                 
SMALL
USER_CHARGES
@<TRIPOS>ATOM
1	  O2	2.790	53.737	-82.831	O.2	1	RES1	0.000	
2	  O3	3.697	49.730	-77.402	O.2	1	RES1	0.000	
3	  O4	0.226	50.443	-80.154	O.2	1	RES1	0.000	
4	  O5	0.411	49.806	-82.282	O.2	1	RES1	0.000	
5	  N6	1.977	54.448	-85.599	N.pl3	1	RES1	0.000	
6	  N7	1.706	51.752	-82.105	N.2	1	RES1	0.000	
7	  N8	1.986	50.094	-78.842	N.pl3	1	RES1	0.000	
8	 C22	1.345	53.195	-85.460	C.2	1	RES1	0.000	
9	 C23	0.524	52.693	-86.455	C.2	1	RES1	0.000	
10	 C24	-0.168	51.508	-86.317	C.2	1	RES1	0.000	
11	 C25	-0.124	50.786	-85.102	C.2	1	RES1	0.000	
12	 C26	0.663	51.339	-84.084	C.2	1	RES1	0.000	
13	 C27	1.358	52.491	-84.237	C.2	1	RES1	0.000	
14	 C28	2.053	52.788	-82.984	C.2	1	RES1	0.000	
15	 C29	2.230	51.615	-80.747	C.3	1	RES1	0.000	
16	 C30	3.720	51.219	-80.686	C.3	1	RES1	0.000	
17	 C31	4.160	51.186	-79.228	C.3	1	RES1	0.000	
18	 C32	3.298	50.258	-78.412	C.2	1	RES1	0.000	
19	 C33	1.367	50.661	-79.923	C.2	1	RES1	0.000	
20	 C34	0.905	50.845	-82.714	C.2	1	RES1	0.000	
@<TRIPOS>BOND
1 1 14 2
2 2 18 2
3 5 8 1
4 8 9 ar
5 8 13 ar
6 9 10 ar
7 10 11 ar
8 11 12 ar
9 12 13 ar
10 12 20 ar
11 13 14 ar
12 6 14 ar
13 6 15 1
14 15 16 1
15 15 19 1
16 16 17 1
17 17 18 1
18 7 18 1
19 3 19 2
20 7 19 1
21 4 20 2
22 6 20 ar
@<TRIPOS>SUBSTRUCTURE
1	RES1	1	GROUP	1 ****	RES
