# created with PyMOL 2.5.2
@<TRIPOS>MOLECULE
BTK_7BQU_E3ligase
19 21 1                 
SMALL
USER_CHARGES
@<TRIPOS>ATOM
1	  O3	23.119	17.608	13.711	O.2	1	RES1	0.000	
2	  O4	26.319	20.335	17.893	O.2	1	RES1	0.000	
3	  O5	23.814	19.716	14.185	O.2	1	RES1	0.000	
4	  N6	25.418	17.652	13.172	N.2	1	RES1	0.000	
5	  O6	27.378	17.234	11.947	O.2	1	RES1	0.000	
6	  N7	25.114	19.950	16.017	N.pl3	1	RES1	0.000	
7	 C19	24.463	14.866	9.621	C.2	1	RES1	0.000	
8	 C20	23.163	14.978	10.153	C.2	1	RES1	0.000	
9	 C21	22.923	15.773	11.315	C.2	1	RES1	0.000	
10	 C22	24.022	16.414	11.860	C.2	1	RES1	0.000	
11	 C23	24.105	17.313	13.020	C.2	1	RES1	0.000	
12	 C24	25.955	18.603	14.184	C.3	1	RES1	0.000	
13	 C25	26.783	17.879	15.264	C.3	1	RES1	0.000	
14	 C26	27.325	18.919	16.221	C.3	1	RES1	0.000	
15	 C27	26.222	19.779	16.792	C.2	1	RES1	0.000	
16	 C28	24.852	19.447	14.776	C.2	1	RES1	0.000	
17	 C29	26.189	17.138	12.158	C.2	1	RES1	0.000	
18	 C30	25.285	16.323	11.327	C.2	1	RES1	0.000	
19	 C31	25.545	15.527	10.223	C.2	1	RES1	0.000	
@<TRIPOS>BOND
1 7 8 ar
2 7 19 ar
3 8 9 ar
4 9 10 ar
5 10 11 ar
6 10 18 ar
7 1 11 2
8 4 11 ar
9 4 12 1
10 12 13 1
11 12 16 1
12 13 14 1
13 14 15 1
14 2 15 2
15 6 15 1
16 3 16 2
17 6 16 1
18 4 17 ar
19 5 17 2
20 17 18 ar
21 18 19 ar
@<TRIPOS>SUBSTRUCTURE
1	RES1	1	GROUP	1 ****	RES
