# created with PyMOL 2.5.2
@<TRIPOS>MOLECULE
BTK_7BQU_E3ligase
19 21 1                 
SMALL
USER_CHARGES
@<TRIPOS>ATOM
1	  O4	23.133	17.671	13.676	O.2	1	RES1	0.000	
2	  O5	26.329	20.332	17.912	O.2	1	RES1	0.000	
3	  N6	25.447	17.676	13.148	N.2	1	RES1	0.000	
4	  O6	23.778	19.650	14.207	O.2	1	RES1	0.000	
5	  N7	25.077	19.908	16.037	N.pl3	1	RES1	0.000	
6	  O7	27.396	17.207	11.934	O.2	1	RES1	0.000	
7	 C20	24.450	14.859	9.633	C.2	1	RES1	0.000	
8	 C21	23.166	14.993	10.167	C.2	1	RES1	0.000	
9	 C22	22.910	15.787	11.305	C.2	1	RES1	0.000	
10	 C23	24.029	16.418	11.857	C.2	1	RES1	0.000	
11	 C24	24.112	17.338	13.032	C.2	1	RES1	0.000	
12	 C25	25.976	18.600	14.172	C.3	1	RES1	0.000	
13	 C26	26.817	17.922	15.224	C.3	1	RES1	0.000	
14	 C27	27.341	18.991	16.195	C.3	1	RES1	0.000	
15	 C28	26.200	19.765	16.825	C.2	1	RES1	0.000	
16	 C29	24.816	19.395	14.786	C.2	1	RES1	0.000	
17	 C30	26.214	17.106	12.149	C.2	1	RES1	0.000	
18	 C31	25.261	16.306	11.341	C.2	1	RES1	0.000	
19	 C32	25.542	15.529	10.239	C.2	1	RES1	0.000	
@<TRIPOS>BOND
1 7 8 ar
2 7 19 ar
3 8 9 ar
4 9 10 ar
5 10 11 ar
6 10 18 ar
7 1 11 2
8 3 11 ar
9 3 12 1
10 12 13 1
11 12 16 1
12 13 14 1
13 14 15 1
14 2 15 2
15 5 15 1
16 4 16 2
17 5 16 1
18 3 17 ar
19 6 17 2
20 17 18 ar
21 18 19 ar
@<TRIPOS>SUBSTRUCTURE
1	RES1	1	GROUP	1 ****	RES
