# created with PyMOL 2.5.2
@<TRIPOS>MOLECULE
BTK_7BQU_E3ligase
19 21 1                 
SMALL
USER_CHARGES
@<TRIPOS>ATOM
1	  O4	23.135	17.684	13.676	O.2	1	RES1	0.000	
2	  O5	26.327	20.293	17.912	O.2	1	RES1	0.000	
3	  O6	23.775	19.648	14.229	O.2	1	RES1	0.000	
4	  N7	25.428	17.673	13.130	N.2	1	RES1	0.000	
5	  O7	27.396	17.228	11.938	O.2	1	RES1	0.000	
6	  N8	25.069	19.906	16.049	N.pl3	1	RES1	0.000	
7	 C17	24.449	14.852	9.644	C.2	1	RES1	0.000	
8	 C18	23.170	14.962	10.196	C.2	1	RES1	0.000	
9	 C19	22.916	15.771	11.296	C.2	1	RES1	0.000	
10	 C20	24.021	16.454	11.866	C.2	1	RES1	0.000	
11	 C21	24.107	17.339	13.001	C.2	1	RES1	0.000	
12	 C22	25.982	18.612	14.155	C.3	1	RES1	0.000	
13	 C23	26.814	17.949	15.210	C.3	1	RES1	0.000	
14	 C24	27.360	18.965	16.187	C.3	1	RES1	0.000	
15	 C25	26.205	19.767	16.810	C.2	1	RES1	0.000	
16	 C26	24.812	19.407	14.798	C.2	1	RES1	0.000	
17	 C27	26.186	17.129	12.162	C.2	1	RES1	0.000	
18	 C28	25.301	16.311	11.349	C.2	1	RES1	0.000	
19	 C29	25.543	15.506	10.233	C.2	1	RES1	0.000	
@<TRIPOS>BOND
1 7 8 ar
2 7 19 ar
3 8 9 ar
4 9 10 ar
5 10 11 ar
6 10 18 ar
7 1 11 2
8 4 11 ar
9 4 12 1
10 12 13 1
11 12 16 1
12 13 14 1
13 14 15 1
14 2 15 2
15 6 15 1
16 3 16 2
17 6 16 1
18 4 17 ar
19 5 17 2
20 17 18 ar
21 18 19 ar
@<TRIPOS>SUBSTRUCTURE
1	RES1	1	GROUP	1 ****	RES
