# created with PyMOL 2.5.2
@<TRIPOS>MOLECULE
ALK_6H0G_E3ligase
20 22 1                 
SMALL
USER_CHARGES
@<TRIPOS>ATOM
1	  N7	1.975	54.464	-85.575	N.pl3	1	RES1	0.000	
2	  N8	1.718	51.761	-82.113	N.2	1	RES1	0.000	
3	  N9	1.995	50.118	-78.827	N.pl3	1	RES1	0.000	
4	 O10	2.804	53.748	-82.831	O.2	1	RES1	0.000	
5	 O11	3.693	49.695	-77.403	O.2	1	RES1	0.000	
6	 O12	0.193	50.496	-80.136	O.2	1	RES1	0.000	
7	 O13	0.448	49.800	-82.279	O.2	1	RES1	0.000	
8	 C41	1.318	53.219	-85.453	C.2	1	RES1	0.000	
9	 C42	0.525	52.678	-86.471	C.2	1	RES1	0.000	
10	 C43	-0.188	51.484	-86.299	C.2	1	RES1	0.000	
11	 C44	-0.103	50.784	-85.112	C.2	1	RES1	0.000	
12	 C45	0.666	51.319	-84.082	C.2	1	RES1	0.000	
13	 C46	1.354	52.504	-84.241	C.2	1	RES1	0.000	
14	 C47	2.061	52.767	-82.981	C.2	1	RES1	0.000	
15	 C48	2.240	51.619	-80.755	C.3	1	RES1	0.000	
16	 C49	3.710	51.215	-80.697	C.3	1	RES1	0.000	
17	 C50	4.179	51.176	-79.232	C.3	1	RES1	0.000	
18	 C51	3.266	50.244	-78.415	C.2	1	RES1	0.000	
19	 C52	1.381	50.673	-79.930	C.2	1	RES1	0.000	
20	 C53	0.890	50.827	-82.733	C.2	1	RES1	0.000	
@<TRIPOS>BOND
1 4 14 2
2 5 18 2
3 6 19 2
4 7 20 2
5 1 8 1
6 8 9 ar
7 8 13 ar
8 9 10 ar
9 10 11 ar
10 11 12 ar
11 12 13 ar
12 12 20 ar
13 13 14 ar
14 2 14 ar
15 2 15 1
16 15 16 1
17 15 19 1
18 16 17 1
19 17 18 1
20 3 18 1
21 3 19 1
22 2 20 ar
@<TRIPOS>SUBSTRUCTURE
1	RES1	1	GROUP	1 ****	RES
