# created with PyMOL 2.5.2
@<TRIPOS>MOLECULE
BTK_7BQU_E3ligase
19 21 1                 
SMALL
USER_CHARGES
@<TRIPOS>ATOM
1	  O4	23.114	17.651	13.675	O.2	1	RES1	0.000	
2	  O5	26.320	20.291	17.906	O.2	1	RES1	0.000	
3	  O6	23.778	19.658	14.232	O.2	1	RES1	0.000	
4	  O7	27.407	17.242	11.939	O.2	1	RES1	0.000	
5	  N8	25.415	17.690	13.153	N.2	1	RES1	0.000	
6	  N9	25.099	19.918	16.055	N.pl3	1	RES1	0.000	
7	 C33	24.464	14.859	9.660	C.2	1	RES1	0.000	
8	 C34	23.168	14.973	10.190	C.2	1	RES1	0.000	
9	 C35	22.915	15.786	11.311	C.2	1	RES1	0.000	
10	 C36	24.038	16.431	11.837	C.2	1	RES1	0.000	
11	 C37	24.101	17.323	12.999	C.2	1	RES1	0.000	
12	 C38	25.953	18.616	14.153	C.3	1	RES1	0.000	
13	 C39	26.810	17.938	15.227	C.3	1	RES1	0.000	
14	 C40	27.353	18.966	16.173	C.3	1	RES1	0.000	
15	 C41	26.228	19.784	16.801	C.2	1	RES1	0.000	
16	 C42	24.814	19.401	14.799	C.2	1	RES1	0.000	
17	 C43	26.194	17.112	12.153	C.2	1	RES1	0.000	
18	 C44	25.285	16.294	11.343	C.2	1	RES1	0.000	
19	 C45	25.538	15.518	10.235	C.2	1	RES1	0.000	
@<TRIPOS>BOND
1 7 8 ar
2 7 19 ar
3 8 9 ar
4 9 10 ar
5 10 11 ar
6 10 18 ar
7 1 11 2
8 5 11 ar
9 5 12 1
10 12 13 1
11 12 16 1
12 13 14 1
13 14 15 1
14 2 15 2
15 6 15 1
16 3 16 2
17 6 16 1
18 4 17 2
19 5 17 ar
20 17 18 ar
21 18 19 ar
@<TRIPOS>SUBSTRUCTURE
1	RES1	1	GROUP	1 ****	RES
