# created with PyMOL 2.5.2
@<TRIPOS>MOLECULE
BTK_7BQU_E3ligase
19 21 1                 
SMALL
USER_CHARGES
@<TRIPOS>ATOM
1	  O3	23.123	17.685	13.660	O.2	1	RES1	0.000	
2	  O4	26.351	20.303	17.900	O.2	1	RES1	0.000	
3	  O5	23.756	19.648	14.231	O.2	1	RES1	0.000	
4	  N6	25.425	17.696	13.162	N.2	1	RES1	0.000	
5	  O6	27.396	17.240	11.940	O.2	1	RES1	0.000	
6	  N7	25.082	19.911	16.057	N.pl3	1	RES1	0.000	
7	 C19	24.467	14.851	9.646	C.2	1	RES1	0.000	
8	 C20	23.167	14.976	10.170	C.2	1	RES1	0.000	
9	 C21	22.910	15.769	11.309	C.2	1	RES1	0.000	
10	 C22	24.016	16.426	11.853	C.2	1	RES1	0.000	
11	 C23	24.078	17.323	13.014	C.2	1	RES1	0.000	
12	 C24	25.958	18.616	14.149	C.3	1	RES1	0.000	
13	 C25	26.816	17.932	15.217	C.3	1	RES1	0.000	
14	 C26	27.368	18.968	16.193	C.3	1	RES1	0.000	
15	 C27	26.219	19.774	16.815	C.2	1	RES1	0.000	
16	 C28	24.804	19.408	14.790	C.2	1	RES1	0.000	
17	 C29	26.194	17.111	12.151	C.2	1	RES1	0.000	
18	 C30	25.297	16.292	11.343	C.2	1	RES1	0.000	
19	 C31	25.566	15.522	10.239	C.2	1	RES1	0.000	
@<TRIPOS>BOND
1 7 8 ar
2 7 19 ar
3 8 9 ar
4 9 10 ar
5 10 11 ar
6 10 18 ar
7 1 11 2
8 4 11 ar
9 4 12 1
10 12 13 1
11 12 16 1
12 13 14 1
13 14 15 1
14 2 15 2
15 6 15 1
16 3 16 2
17 6 16 1
18 4 17 ar
19 5 17 2
20 17 18 ar
21 18 19 ar
@<TRIPOS>SUBSTRUCTURE
1	RES1	1	GROUP	1 ****	RES
