# created with PyMOL 2.5.2
@<TRIPOS>MOLECULE
BTK_7BQU_E3ligase
19 21 1                 
SMALL
USER_CHARGES
@<TRIPOS>ATOM
1	  O4	23.134	17.710	13.659	O.2	1	RES1	0.000	
2	  O5	26.325	20.283	17.923	O.2	1	RES1	0.000	
3	  O6	23.748	19.614	14.272	O.2	1	RES1	0.000	
4	  N7	25.431	17.712	13.131	N.2	1	RES1	0.000	
5	  O7	27.424	17.216	11.926	O.2	1	RES1	0.000	
6	  N8	25.057	19.887	16.080	N.pl3	1	RES1	0.000	
7	 C18	24.447	14.823	9.654	C.2	1	RES1	0.000	
8	 C19	23.160	14.973	10.194	C.2	1	RES1	0.000	
9	 C20	22.946	15.784	11.307	C.2	1	RES1	0.000	
10	 C21	24.025	16.460	11.866	C.2	1	RES1	0.000	
11	 C22	24.110	17.341	12.991	C.2	1	RES1	0.000	
12	 C23	25.971	18.622	14.141	C.3	1	RES1	0.000	
13	 C24	26.838	17.954	15.193	C.3	1	RES1	0.000	
14	 C25	27.351	19.010	16.159	C.3	1	RES1	0.000	
15	 C26	26.212	19.769	16.804	C.2	1	RES1	0.000	
16	 C27	24.808	19.375	14.812	C.2	1	RES1	0.000	
17	 C28	26.197	17.123	12.149	C.2	1	RES1	0.000	
18	 C29	25.269	16.302	11.346	C.2	1	RES1	0.000	
19	 C30	25.542	15.495	10.232	C.2	1	RES1	0.000	
@<TRIPOS>BOND
1 7 8 ar
2 7 19 ar
3 8 9 ar
4 9 10 ar
5 10 11 ar
6 10 18 ar
7 1 11 2
8 4 11 ar
9 4 12 1
10 12 13 1
11 12 16 1
12 13 14 1
13 14 15 1
14 2 15 2
15 6 15 1
16 3 16 2
17 6 16 1
18 4 17 ar
19 5 17 2
20 17 18 ar
21 18 19 ar
@<TRIPOS>SUBSTRUCTURE
1	RES1	1	GROUP	1 ****	RES
