# created with PyMOL 2.5.2
@<TRIPOS>MOLECULE
CDK6_4TZ4_E3ligase
19 21 1                 
SMALL
USER_CHARGES
@<TRIPOS>ATOM
1	  N6	-46.216	59.146	-98.122	N.pl3	1	RES1	0.000	
2	  N7	-45.204	55.231	-96.282	N.2	1	RES1	0.000	
3	  O7	-46.468	50.068	-94.849	O.2	1	RES1	0.000	
4	  N8	-44.955	51.731	-95.164	N.pl3	1	RES1	0.000	
5	  O8	-43.344	53.291	-95.456	O.2	1	RES1	0.000	
6	  O9	-43.687	55.214	-94.489	O.2	1	RES1	0.000	
7	 C25	-45.417	58.870	-96.997	C.2	1	RES1	0.000	
8	 C26	-44.655	59.831	-96.363	C.2	1	RES1	0.000	
9	 C27	-43.764	59.508	-95.307	C.2	1	RES1	0.000	
10	 C28	-43.614	58.188	-94.880	C.2	1	RES1	0.000	
11	 C29	-44.323	57.247	-95.561	C.2	1	RES1	0.000	
12	 C30	-45.196	57.513	-96.585	C.2	1	RES1	0.000	
13	 C31	-45.820	56.282	-97.114	C.2	1	RES1	0.000	
14	 C32	-45.554	53.825	-96.347	C.3	1	RES1	0.000	
15	 C33	-46.959	53.526	-95.774	C.3	1	RES1	0.000	
16	 C34	-47.257	52.031	-95.928	C.3	1	RES1	0.000	
17	 C35	-46.223	51.179	-95.262	C.2	1	RES1	0.000	
18	 C36	-44.521	52.955	-95.601	C.2	1	RES1	0.000	
19	 C37	-44.347	55.787	-95.342	C.2	1	RES1	0.000	
@<TRIPOS>BOND
1 1 7 1
2 7 8 ar
3 7 12 ar
4 8 9 ar
5 9 10 ar
6 10 11 ar
7 11 12 ar
8 11 19 ar
9 12 13 ar
10 2 13 ar
11 2 14 1
12 14 15 1
13 14 18 1
14 15 16 1
15 16 17 1
16 3 17 2
17 4 17 1
18 4 18 1
19 5 18 2
20 2 19 ar
21 6 19 2
@<TRIPOS>SUBSTRUCTURE
1	RES1	1	GROUP	1 ****	RES
