# created with PyMOL 2.5.2
@<TRIPOS>MOLECULE
CDK6_7BQU_E3ligase
19 21 1                 
SMALL
USER_CHARGES
@<TRIPOS>ATOM
1	  N7	25.431	17.686	13.151	N.2	1	RES1	0.000	
2	  O7	27.397	17.207	11.981	O.2	1	RES1	0.000	
3	  N8	25.067	19.872	16.070	N.pl3	1	RES1	0.000	
4	  O8	26.366	20.336	17.900	O.2	1	RES1	0.000	
5	  O9	23.724	19.568	14.272	O.2	1	RES1	0.000	
6	 O10	23.119	17.709	13.637	O.2	1	RES1	0.000	
7	 C26	25.569	15.502	10.245	C.2	1	RES1	0.000	
8	 C27	24.466	14.824	9.649	C.2	1	RES1	0.000	
9	 C28	23.179	14.984	10.167	C.2	1	RES1	0.000	
10	 C29	22.915	15.815	11.288	C.2	1	RES1	0.000	
11	 C30	24.011	16.460	11.859	C.2	1	RES1	0.000	
12	 C31	25.285	16.313	11.344	C.2	1	RES1	0.000	
13	 C32	26.188	17.111	12.161	C.2	1	RES1	0.000	
14	 C33	25.943	18.608	14.145	C.3	1	RES1	0.000	
15	 C34	26.859	17.962	15.181	C.3	1	RES1	0.000	
16	 C35	27.364	19.037	16.141	C.3	1	RES1	0.000	
17	 C36	26.224	19.767	16.819	C.2	1	RES1	0.000	
18	 C37	24.812	19.370	14.827	C.2	1	RES1	0.000	
19	 C38	24.076	17.323	13.001	C.2	1	RES1	0.000	
@<TRIPOS>BOND
1 6 19 2
2 7 8 ar
3 7 12 ar
4 8 9 ar
5 9 10 ar
6 10 11 ar
7 11 12 ar
8 11 19 ar
9 12 13 ar
10 1 13 ar
11 2 13 2
12 1 14 1
13 14 15 1
14 14 18 1
15 15 16 1
16 16 17 1
17 3 17 1
18 4 17 2
19 3 18 1
20 5 18 2
21 1 19 ar
@<TRIPOS>SUBSTRUCTURE
1	RES1	1	GROUP	1 ****	RES
