# created with PyMOL 2.5.2
@<TRIPOS>MOLECULE
CDK6_7BQU_E3ligase
19 21 1                 
SMALL
USER_CHARGES
@<TRIPOS>ATOM
1	  N7	25.418	17.701	13.159	N.2	1	RES1	0.000	
2	  N8	25.075	19.903	16.084	N.pl3	1	RES1	0.000	
3	  O8	27.376	17.208	11.943	O.2	1	RES1	0.000	
4	  O9	26.339	20.321	17.907	O.2	1	RES1	0.000	
5	 O10	23.756	19.629	14.271	O.2	1	RES1	0.000	
6	 O11	23.118	17.687	13.646	O.2	1	RES1	0.000	
7	 C27	25.547	15.489	10.219	C.2	1	RES1	0.000	
8	 C28	24.462	14.831	9.658	C.2	1	RES1	0.000	
9	 C29	23.152	14.976	10.168	C.2	1	RES1	0.000	
10	 C30	22.943	15.793	11.285	C.2	1	RES1	0.000	
11	 C31	24.021	16.442	11.847	C.2	1	RES1	0.000	
12	 C32	25.293	16.307	11.352	C.2	1	RES1	0.000	
13	 C33	26.202	17.095	12.160	C.2	1	RES1	0.000	
14	 C34	25.945	18.612	14.148	C.3	1	RES1	0.000	
15	 C35	26.829	17.960	15.186	C.3	1	RES1	0.000	
16	 C36	27.378	19.005	16.176	C.3	1	RES1	0.000	
17	 C37	26.221	19.763	16.806	C.2	1	RES1	0.000	
18	 C38	24.811	19.394	14.819	C.2	1	RES1	0.000	
19	 C39	24.107	17.338	13.005	C.2	1	RES1	0.000	
@<TRIPOS>BOND
1 5 18 2
2 6 19 2
3 7 8 ar
4 7 12 ar
5 8 9 ar
6 9 10 ar
7 10 11 ar
8 11 12 ar
9 11 19 ar
10 12 13 ar
11 1 13 ar
12 3 13 2
13 1 14 1
14 14 15 1
15 14 18 1
16 15 16 1
17 16 17 1
18 2 17 1
19 4 17 2
20 2 18 1
21 1 19 ar
@<TRIPOS>SUBSTRUCTURE
1	RES1	1	GROUP	1 ****	RES
