# created with PyMOL 2.5.2
@<TRIPOS>MOLECULE
BTK_6H0G_E3ligase
20 22 1                 
SMALL
USER_CHARGES
@<TRIPOS>ATOM
1	  O3	2.840	53.722	-82.850	O.2	1	RES1	0.000	
2	  O4	3.675	49.699	-77.365	O.3	1	RES1	0.000	
3	  O5	0.192	50.462	-80.178	O.2	1	RES1	0.000	
4	  O6	0.433	49.808	-82.287	O.2	1	RES1	0.000	
5	  N7	1.973	54.441	-85.596	N.pl3	1	RES1	0.000	
6	  N8	1.745	51.758	-82.128	N.2	1	RES1	0.000	
7	  N9	1.979	50.105	-78.857	N.pl3	1	RES1	0.000	
8	 C28	1.330	53.196	-85.447	C.2	1	RES1	0.000	
9	 C29	0.496	52.694	-86.448	C.2	1	RES1	0.000	
10	 C30	-0.208	51.508	-86.287	C.2	1	RES1	0.000	
11	 C31	-0.145	50.805	-85.072	C.2	1	RES1	0.000	
12	 C32	0.670	51.329	-84.076	C.2	1	RES1	0.000	
13	 C33	1.360	52.488	-84.240	C.2	1	RES1	0.000	
14	 C34	2.075	52.767	-83.021	C.2	1	RES1	0.000	
15	 C35	2.272	51.622	-80.754	C.3	1	RES1	0.000	
16	 C36	3.723	51.232	-80.664	C.3	1	RES1	0.000	
17	 C37	4.164	51.179	-79.211	C.3	1	RES1	0.000	
18	 C38	3.276	50.264	-78.395	C.3	1	RES1	0.000	
19	 C39	1.369	50.677	-79.955	C.2	1	RES1	0.000	
20	 C40	0.907	50.837	-82.736	C.2	1	RES1	0.000	
@<TRIPOS>BOND
1 1 14 2
2 5 8 1
3 8 9 ar
4 8 13 ar
5 9 10 ar
6 10 11 ar
7 11 12 ar
8 12 13 ar
9 12 20 ar
10 13 14 ar
11 6 14 ar
12 6 15 1
13 15 16 1
14 15 19 1
15 16 17 1
16 17 18 1
17 2 18 1
18 7 18 1
19 3 19 2
20 7 19 1
21 4 20 2
22 6 20 ar
@<TRIPOS>SUBSTRUCTURE
1	RES1	1	GROUP	1 ****	RES
