# created with PyMOL 2.5.2
@<TRIPOS>MOLECULE
BTK_7BQU_E3ligase
19 21 1                 
SMALL
USER_CHARGES
@<TRIPOS>ATOM
1	  O3	23.122	17.693	13.673	O.2	1	RES1	0.000	
2	  O4	26.320	20.293	17.912	O.2	1	RES1	0.000	
3	  O5	23.755	19.623	14.231	O.2	1	RES1	0.000	
4	  O6	27.399	17.242	11.929	O.2	1	RES1	0.000	
5	  N8	25.436	17.702	13.128	N.2	1	RES1	0.000	
6	  N9	25.073	19.857	16.037	N.pl3	1	RES1	0.000	
7	 C28	24.473	14.831	9.665	C.2	1	RES1	0.000	
8	 C29	23.164	14.972	10.200	C.2	1	RES1	0.000	
9	 C30	22.920	15.788	11.301	C.2	1	RES1	0.000	
10	 C31	24.034	16.453	11.859	C.2	1	RES1	0.000	
11	 C32	24.092	17.339	13.001	C.2	1	RES1	0.000	
12	 C33	25.975	18.627	14.152	C.3	1	RES1	0.000	
13	 C34	26.838	17.947	15.206	C.3	1	RES1	0.000	
14	 C35	27.361	18.988	16.194	C.3	1	RES1	0.000	
15	 C36	26.217	19.762	16.821	C.2	1	RES1	0.000	
16	 C37	24.803	19.384	14.799	C.2	1	RES1	0.000	
17	 C38	26.193	17.128	12.134	C.2	1	RES1	0.000	
18	 C39	25.281	16.302	11.368	C.2	1	RES1	0.000	
19	 C40	25.543	15.522	10.234	C.2	1	RES1	0.000	
@<TRIPOS>BOND
1 1 11 2
2 7 8 ar
3 7 19 ar
4 8 9 ar
5 9 10 ar
6 10 11 ar
7 10 18 ar
8 5 11 ar
9 5 12 1
10 12 13 1
11 12 16 1
12 13 14 1
13 14 15 1
14 2 15 2
15 6 15 1
16 3 16 2
17 6 16 1
18 4 17 2
19 5 17 ar
20 17 18 ar
21 18 19 ar
@<TRIPOS>SUBSTRUCTURE
1	RES1	1	GROUP	1 ****	RES
