# created with PyMOL 2.5.2
@<TRIPOS>MOLECULE
BTK_6H0G_E3ligase
20 22 1                 
SMALL
USER_CHARGES
@<TRIPOS>ATOM
1	  O3	2.829	53.766	-82.861	O.2	1	RES1	0.000	
2	  O4	3.666	49.646	-77.421	O.3	1	RES1	0.000	
3	  O5	0.221	50.394	-80.256	O.2	1	RES1	0.000	
4	  O6	0.442	49.836	-82.221	O.2	1	RES1	0.000	
5	  N7	1.976	54.409	-85.631	N.pl3	1	RES1	0.000	
6	  N8	1.740	51.799	-82.109	N.2	1	RES1	0.000	
7	  N9	1.997	50.047	-78.872	N.pl3	1	RES1	0.000	
8	 C29	1.331	53.202	-85.469	C.2	1	RES1	0.000	
9	 C30	0.520	52.673	-86.469	C.2	1	RES1	0.000	
10	 C31	-0.211	51.472	-86.282	C.2	1	RES1	0.000	
11	 C32	-0.135	50.777	-85.056	C.2	1	RES1	0.000	
12	 C33	0.658	51.352	-84.056	C.2	1	RES1	0.000	
13	 C34	1.371	52.515	-84.236	C.2	1	RES1	0.000	
14	 C35	2.079	52.816	-83.002	C.2	1	RES1	0.000	
15	 C36	2.240	51.664	-80.732	C.3	1	RES1	0.000	
16	 C37	3.702	51.282	-80.638	C.3	1	RES1	0.000	
17	 C38	4.130	51.205	-79.187	C.3	1	RES1	0.000	
18	 C39	3.284	50.230	-78.409	C.3	1	RES1	0.000	
19	 C40	1.385	50.627	-79.980	C.2	1	RES1	0.000	
20	 C41	0.899	50.881	-82.678	C.2	1	RES1	0.000	
@<TRIPOS>BOND
1 1 14 2
2 5 8 1
3 8 9 ar
4 8 13 ar
5 9 10 ar
6 10 11 ar
7 11 12 ar
8 12 13 ar
9 12 20 ar
10 13 14 ar
11 6 14 ar
12 6 15 1
13 15 16 1
14 15 19 1
15 16 17 1
16 17 18 1
17 2 18 1
18 7 18 1
19 3 19 2
20 7 19 1
21 4 20 2
22 6 20 ar
@<TRIPOS>SUBSTRUCTURE
1	RES1	1	GROUP	1 ****	RES
