# created with PyMOL 2.5.2
@<TRIPOS>MOLECULE
BTK_7BQU_E3ligase
19 21 1                 
SMALL
USER_CHARGES
@<TRIPOS>ATOM
1	  O3	23.120	17.660	13.673	O.2	1	RES1	0.000	
2	  O4	26.329	20.292	17.895	O.2	1	RES1	0.000	
3	  O5	23.771	19.667	14.196	O.2	1	RES1	0.000	
4	  O6	27.392	17.215	11.941	O.2	1	RES1	0.000	
5	  N8	25.434	17.676	13.153	N.2	1	RES1	0.000	
6	  N9	25.070	19.916	16.042	N.pl3	1	RES1	0.000	
7	 C29	24.459	14.867	9.649	C.2	1	RES1	0.000	
8	 C30	23.168	14.980	10.183	C.2	1	RES1	0.000	
9	 C31	22.931	15.781	11.298	C.2	1	RES1	0.000	
10	 C32	24.010	16.431	11.856	C.2	1	RES1	0.000	
11	 C33	24.106	17.320	13.025	C.2	1	RES1	0.000	
12	 C34	25.963	18.596	14.157	C.3	1	RES1	0.000	
13	 C35	26.825	17.931	15.229	C.3	1	RES1	0.000	
14	 C36	27.339	18.980	16.192	C.3	1	RES1	0.000	
15	 C37	26.234	19.769	16.819	C.2	1	RES1	0.000	
16	 C38	24.824	19.419	14.794	C.2	1	RES1	0.000	
17	 C39	26.189	17.122	12.169	C.2	1	RES1	0.000	
18	 C40	25.280	16.313	11.342	C.2	1	RES1	0.000	
19	 C41	25.553	15.518	10.226	C.2	1	RES1	0.000	
@<TRIPOS>BOND
1 1 11 2
2 7 8 ar
3 7 19 ar
4 8 9 ar
5 9 10 ar
6 10 11 ar
7 10 18 ar
8 5 11 ar
9 5 12 1
10 12 13 1
11 12 16 1
12 13 14 1
13 14 15 1
14 2 15 2
15 6 15 1
16 3 16 2
17 6 16 1
18 4 17 2
19 5 17 ar
20 17 18 ar
21 18 19 ar
@<TRIPOS>SUBSTRUCTURE
1	RES1	1	GROUP	1 ****	RES
