# created with PyMOL 2.5.2
@<TRIPOS>MOLECULE
ALK_6H0G_E3ligase
20 22 1                 
SMALL
USER_CHARGES
@<TRIPOS>ATOM
1	  O5	2.798	53.768	-82.842	O.2	1	RES1	0.000	
2	  O6	3.671	49.642	-77.418	O.3	1	RES1	0.000	
3	  N7	1.952	54.436	-85.601	N.pl3	1	RES1	0.000	
4	  O7	0.215	50.454	-80.230	O.2	1	RES1	0.000	
5	  N8	1.740	51.799	-82.110	N.2	1	RES1	0.000	
6	  O8	0.434	49.821	-82.244	O.2	1	RES1	0.000	
7	  N9	2.007	50.073	-78.879	N.pl3	1	RES1	0.000	
8	 C31	1.330	53.214	-85.464	C.2	1	RES1	0.000	
9	 C32	0.513	52.666	-86.467	C.2	1	RES1	0.000	
10	 C33	-0.177	51.462	-86.283	C.2	1	RES1	0.000	
11	 C34	-0.111	50.769	-85.065	C.2	1	RES1	0.000	
12	 C35	0.672	51.338	-84.071	C.2	1	RES1	0.000	
13	 C36	1.345	52.503	-84.230	C.2	1	RES1	0.000	
14	 C37	2.077	52.804	-82.983	C.2	1	RES1	0.000	
15	 C38	2.235	51.657	-80.743	C.3	1	RES1	0.000	
16	 C39	3.717	51.269	-80.656	C.3	1	RES1	0.000	
17	 C40	4.150	51.172	-79.209	C.3	1	RES1	0.000	
18	 C41	3.269	50.208	-78.416	C.3	1	RES1	0.000	
19	 C42	1.387	50.678	-79.975	C.2	1	RES1	0.000	
20	 C43	0.900	50.858	-82.678	C.2	1	RES1	0.000	
@<TRIPOS>BOND
1 3 8 1
2 8 9 ar
3 8 13 ar
4 9 10 ar
5 10 11 ar
6 11 12 ar
7 12 13 ar
8 12 20 ar
9 13 14 ar
10 1 14 2
11 5 14 ar
12 5 15 1
13 15 16 1
14 15 19 1
15 16 17 1
16 17 18 1
17 2 18 1
18 7 18 1
19 4 19 2
20 7 19 1
21 5 20 ar
22 6 20 2
@<TRIPOS>SUBSTRUCTURE
1	RES1	1	GROUP	1 ****	RES
