# created with PyMOL 2.5.2
@<TRIPOS>MOLECULE
BRD4_7BQU_E3ligase
19 21 1                 
SMALL
USER_CHARGES
@<TRIPOS>ATOM
1	  O4	27.404	17.212	11.951	O.2	1	RES1	0.000	
2	  O5	26.354	20.288	17.890	O.2	1	RES1	0.000	
3	  O6	23.723	19.597	14.284	O.2	1	RES1	0.000	
4	  N7	25.418	17.705	13.139	N.2	1	RES1	0.000	
5	  O7	23.104	17.703	13.646	O.2	1	RES1	0.000	
6	  N8	25.057	19.886	16.078	N.pl3	1	RES1	0.000	
7	 C18	25.549	15.494	10.248	C.2	1	RES1	0.000	
8	 C19	24.480	14.811	9.675	C.2	1	RES1	0.000	
9	 C20	23.176	14.971	10.181	C.2	1	RES1	0.000	
10	 C21	22.928	15.789	11.275	C.2	1	RES1	0.000	
11	 C22	24.036	16.453	11.859	C.2	1	RES1	0.000	
12	 C23	25.279	16.326	11.337	C.2	1	RES1	0.000	
13	 C24	26.178	17.120	12.164	C.2	1	RES1	0.000	
14	 C25	25.943	18.627	14.129	C.3	1	RES1	0.000	
15	 C26	26.864	17.970	15.198	C.3	1	RES1	0.000	
16	 C27	27.385	19.014	16.170	C.3	1	RES1	0.000	
17	 C28	26.236	19.756	16.818	C.2	1	RES1	0.000	
18	 C29	24.799	19.385	14.814	C.2	1	RES1	0.000	
19	 C30	24.080	17.346	12.984	C.2	1	RES1	0.000	
@<TRIPOS>BOND
1 7 8 ar
2 7 12 ar
3 8 9 ar
4 9 10 ar
5 10 11 ar
6 11 12 ar
7 11 19 ar
8 12 13 ar
9 1 13 2
10 4 13 ar
11 4 14 1
12 14 15 1
13 14 18 1
14 15 16 1
15 16 17 1
16 2 17 2
17 6 17 1
18 3 18 2
19 6 18 1
20 4 19 ar
21 5 19 2
@<TRIPOS>SUBSTRUCTURE
1	RES1	1	GROUP	1 ****	RES
