# created with PyMOL 2.5.2
@<TRIPOS>MOLECULE
BTK_7BQU_E3ligase
19 21 1                 
SMALL
USER_CHARGES
@<TRIPOS>ATOM
1	  O3	23.115	17.678	13.660	O.2	1	RES1	0.000	
2	  O4	26.334	20.306	17.894	O.2	1	RES1	0.000	
3	  O5	23.754	19.645	14.247	O.2	1	RES1	0.000	
4	  O6	27.405	17.208	11.940	O.2	1	RES1	0.000	
5	  N8	25.412	17.686	13.156	N.2	1	RES1	0.000	
6	  N9	25.088	19.922	16.053	N.pl3	1	RES1	0.000	
7	 C30	24.458	14.857	9.640	C.2	1	RES1	0.000	
8	 C31	23.171	14.990	10.173	C.2	1	RES1	0.000	
9	 C32	22.930	15.767	11.299	C.2	1	RES1	0.000	
10	 C33	24.035	16.436	11.866	C.2	1	RES1	0.000	
11	 C34	24.106	17.323	13.022	C.2	1	RES1	0.000	
12	 C35	25.949	18.605	14.150	C.3	1	RES1	0.000	
13	 C36	26.807	17.937	15.203	C.3	1	RES1	0.000	
14	 C37	27.342	18.980	16.178	C.3	1	RES1	0.000	
15	 C38	26.239	19.777	16.818	C.2	1	RES1	0.000	
16	 C39	24.827	19.417	14.813	C.2	1	RES1	0.000	
17	 C40	26.191	17.119	12.143	C.2	1	RES1	0.000	
18	 C41	25.287	16.287	11.356	C.2	1	RES1	0.000	
19	 C42	25.546	15.514	10.229	C.2	1	RES1	0.000	
@<TRIPOS>BOND
1 1 11 2
2 7 8 ar
3 7 19 ar
4 8 9 ar
5 9 10 ar
6 10 11 ar
7 10 18 ar
8 5 11 ar
9 5 12 1
10 12 13 1
11 12 16 1
12 13 14 1
13 14 15 1
14 2 15 2
15 6 15 1
16 3 16 2
17 6 16 1
18 4 17 2
19 5 17 ar
20 17 18 ar
21 18 19 ar
@<TRIPOS>SUBSTRUCTURE
1	RES1	1	GROUP	1 ****	RES
