# created with PyMOL 2.5.2
@<TRIPOS>MOLECULE
BTK_6H0G_E3ligase
20 22 1                 
SMALL
USER_CHARGES
@<TRIPOS>ATOM
1	  O3	2.789	53.762	-82.824	O.2	1	RES1	0.000	
2	  O4	3.708	49.650	-77.445	O.2	1	RES1	0.000	
3	  O5	0.187	50.476	-80.158	O.2	1	RES1	0.000	
4	  O6	0.469	49.825	-82.255	O.2	1	RES1	0.000	
5	  N7	1.963	54.450	-85.589	N.pl3	1	RES1	0.000	
6	  N8	1.715	51.801	-82.098	N.2	1	RES1	0.000	
7	  N9	1.983	50.093	-78.846	N.pl3	1	RES1	0.000	
8	 C31	1.336	53.198	-85.449	C.2	1	RES1	0.000	
9	 C32	0.523	52.675	-86.479	C.2	1	RES1	0.000	
10	 C33	-0.146	51.452	-86.281	C.2	1	RES1	0.000	
11	 C34	-0.116	50.748	-85.072	C.2	1	RES1	0.000	
12	 C35	0.673	51.344	-84.071	C.2	1	RES1	0.000	
13	 C36	1.362	52.515	-84.251	C.2	1	RES1	0.000	
14	 C37	2.040	52.807	-82.992	C.2	1	RES1	0.000	
15	 C38	2.226	51.650	-80.736	C.3	1	RES1	0.000	
16	 C39	3.708	51.250	-80.691	C.3	1	RES1	0.000	
17	 C40	4.147	51.170	-79.238	C.3	1	RES1	0.000	
18	 C41	3.288	50.206	-78.436	C.2	1	RES1	0.000	
19	 C42	1.366	50.683	-79.929	C.2	1	RES1	0.000	
20	 C43	0.904	50.839	-82.726	C.2	1	RES1	0.000	
@<TRIPOS>BOND
1 1 14 2
2 2 18 2
3 5 8 1
4 8 9 ar
5 8 13 ar
6 9 10 ar
7 10 11 ar
8 11 12 ar
9 12 13 ar
10 12 20 ar
11 13 14 ar
12 6 14 ar
13 6 15 1
14 15 16 1
15 15 19 1
16 16 17 1
17 17 18 1
18 7 18 1
19 3 19 2
20 7 19 1
21 4 20 2
22 6 20 ar
@<TRIPOS>SUBSTRUCTURE
1	RES1	1	GROUP	1 ****	RES
