# created with PyMOL 2.5.2
@<TRIPOS>MOLECULE
BTK_7BQU_E3ligase
19 21 1                 
SMALL
USER_CHARGES
@<TRIPOS>ATOM
1	  O3	23.109	17.639	13.682	O.2	1	RES1	0.000	
2	  O4	26.360	20.297	17.894	O.2	1	RES1	0.000	
3	  O5	23.784	19.655	14.229	O.2	1	RES1	0.000	
4	  O6	27.381	17.236	11.950	O.2	1	RES1	0.000	
5	  N8	25.421	17.689	13.159	N.2	1	RES1	0.000	
6	  N9	25.087	19.914	16.032	N.pl3	1	RES1	0.000	
7	 C31	24.468	14.863	9.672	C.2	1	RES1	0.000	
8	 C32	23.169	14.987	10.166	C.2	1	RES1	0.000	
9	 C33	22.938	15.774	11.286	C.2	1	RES1	0.000	
10	 C34	24.043	16.426	11.860	C.2	1	RES1	0.000	
11	 C35	24.094	17.333	13.015	C.2	1	RES1	0.000	
12	 C36	25.942	18.607	14.142	C.3	1	RES1	0.000	
13	 C37	26.790	17.927	15.224	C.3	1	RES1	0.000	
14	 C38	27.349	18.973	16.182	C.3	1	RES1	0.000	
15	 C39	26.223	19.796	16.820	C.2	1	RES1	0.000	
16	 C40	24.830	19.384	14.775	C.2	1	RES1	0.000	
17	 C41	26.186	17.120	12.174	C.2	1	RES1	0.000	
18	 C42	25.282	16.310	11.352	C.2	1	RES1	0.000	
19	 C43	25.535	15.523	10.224	C.2	1	RES1	0.000	
@<TRIPOS>BOND
1 1 11 2
2 7 8 ar
3 7 19 ar
4 8 9 ar
5 9 10 ar
6 10 11 ar
7 10 18 ar
8 5 11 ar
9 5 12 1
10 12 13 1
11 12 16 1
12 13 14 1
13 14 15 1
14 2 15 2
15 6 15 1
16 3 16 2
17 6 16 1
18 4 17 2
19 5 17 ar
20 17 18 ar
21 18 19 ar
@<TRIPOS>SUBSTRUCTURE
1	RES1	1	GROUP	1 ****	RES
