# created with PyMOL 2.5.2
@<TRIPOS>MOLECULE
BTK_6H0G_E3ligase
20 22 1                 
SMALL
USER_CHARGES
@<TRIPOS>ATOM
1	  O3	2.830	53.710	-82.849	O.2	1	RES1	0.000	
2	  O4	3.686	49.727	-77.360	O.2	1	RES1	0.000	
3	  O5	0.207	50.423	-80.204	O.2	1	RES1	0.000	
4	  O6	0.405	49.786	-82.266	O.2	1	RES1	0.000	
5	  N7	1.992	54.437	-85.610	N.pl3	1	RES1	0.000	
6	  N8	1.733	51.741	-82.130	N.2	1	RES1	0.000	
7	  N9	1.999	50.100	-78.843	N.pl3	1	RES1	0.000	
8	 C32	1.315	53.193	-85.454	C.2	1	RES1	0.000	
9	 C33	0.496	52.714	-86.468	C.2	1	RES1	0.000	
10	 C34	-0.212	51.514	-86.301	C.2	1	RES1	0.000	
11	 C35	-0.135	50.819	-85.097	C.2	1	RES1	0.000	
12	 C36	0.672	51.331	-84.078	C.2	1	RES1	0.000	
13	 C37	1.366	52.499	-84.260	C.2	1	RES1	0.000	
14	 C38	2.077	52.775	-82.995	C.2	1	RES1	0.000	
15	 C39	2.252	51.616	-80.766	C.3	1	RES1	0.000	
16	 C40	3.722	51.246	-80.649	C.3	1	RES1	0.000	
17	 C41	4.162	51.187	-79.191	C.3	1	RES1	0.000	
18	 C42	3.277	50.261	-78.392	C.2	1	RES1	0.000	
19	 C43	1.387	50.649	-79.952	C.2	1	RES1	0.000	
20	 C44	0.895	50.865	-82.701	C.2	1	RES1	0.000	
@<TRIPOS>BOND
1 1 14 2
2 2 18 2
3 5 8 1
4 8 9 ar
5 8 13 ar
6 9 10 ar
7 10 11 ar
8 11 12 ar
9 12 13 ar
10 12 20 ar
11 13 14 ar
12 6 14 ar
13 6 15 1
14 15 16 1
15 15 19 1
16 16 17 1
17 17 18 1
18 7 18 1
19 3 19 2
20 7 19 1
21 4 20 2
22 6 20 ar
@<TRIPOS>SUBSTRUCTURE
1	RES1	1	GROUP	1 ****	RES
