# created with PyMOL 2.5.2
@<TRIPOS>MOLECULE
BTK_7BQU_E3ligase
19 21 1                 
SMALL
USER_CHARGES
@<TRIPOS>ATOM
1	  O3	23.122	17.664	13.688	O.2	1	RES1	0.000	
2	  O4	26.343	20.303	17.905	O.2	1	RES1	0.000	
3	  O5	23.763	19.666	14.223	O.2	1	RES1	0.000	
4	  O6	27.375	17.226	11.943	O.2	1	RES1	0.000	
5	  N8	25.420	17.692	13.156	N.2	1	RES1	0.000	
6	  N9	25.087	19.911	16.057	N.pl3	1	RES1	0.000	
7	 C32	24.457	14.847	9.649	C.2	1	RES1	0.000	
8	 C33	23.187	14.990	10.177	C.2	1	RES1	0.000	
9	 C34	22.921	15.790	11.286	C.2	1	RES1	0.000	
10	 C35	24.017	16.432	11.868	C.2	1	RES1	0.000	
11	 C36	24.095	17.316	13.006	C.2	1	RES1	0.000	
12	 C37	25.953	18.608	14.151	C.3	1	RES1	0.000	
13	 C38	26.824	17.919	15.222	C.3	1	RES1	0.000	
14	 C39	27.354	18.986	16.192	C.3	1	RES1	0.000	
15	 C40	26.216	19.781	16.821	C.2	1	RES1	0.000	
16	 C41	24.831	19.410	14.784	C.2	1	RES1	0.000	
17	 C42	26.188	17.114	12.144	C.2	1	RES1	0.000	
18	 C43	25.298	16.290	11.348	C.2	1	RES1	0.000	
19	 C44	25.545	15.510	10.222	C.2	1	RES1	0.000	
@<TRIPOS>BOND
1 1 11 2
2 2 15 2
3 7 8 ar
4 7 19 ar
5 8 9 ar
6 9 10 ar
7 10 11 ar
8 10 18 ar
9 5 11 ar
10 5 12 1
11 12 13 1
12 12 16 1
13 13 14 1
14 14 15 1
15 6 15 1
16 3 16 2
17 6 16 1
18 4 17 2
19 5 17 ar
20 17 18 ar
21 18 19 ar
@<TRIPOS>SUBSTRUCTURE
1	RES1	1	GROUP	1 ****	RES
