# created with PyMOL 2.5.2
@<TRIPOS>MOLECULE
BTK_6H0G_E3ligase
20 22 1                 
SMALL
USER_CHARGES
@<TRIPOS>ATOM
1	  O3	2.769	53.761	-82.823	O.2	1	RES1	0.000	
2	  O4	3.716	49.656	-77.447	O.2	1	RES1	0.000	
3	  O5	0.211	50.464	-80.182	O.2	1	RES1	0.000	
4	  O6	0.434	49.796	-82.254	O.2	1	RES1	0.000	
5	  N7	1.959	54.442	-85.598	N.pl3	1	RES1	0.000	
6	  N8	1.706	51.802	-82.113	N.2	1	RES1	0.000	
7	  N9	1.990	50.088	-78.860	N.pl3	1	RES1	0.000	
8	 C33	1.318	53.206	-85.423	C.2	1	RES1	0.000	
9	 C34	0.553	52.658	-86.464	C.2	1	RES1	0.000	
10	 C35	-0.156	51.467	-86.315	C.2	1	RES1	0.000	
11	 C36	-0.074	50.772	-85.088	C.2	1	RES1	0.000	
12	 C37	0.677	51.327	-84.051	C.2	1	RES1	0.000	
13	 C38	1.356	52.513	-84.245	C.2	1	RES1	0.000	
14	 C39	2.035	52.813	-82.978	C.2	1	RES1	0.000	
15	 C40	2.214	51.645	-80.735	C.3	1	RES1	0.000	
16	 C41	3.704	51.255	-80.693	C.3	1	RES1	0.000	
17	 C42	4.161	51.162	-79.230	C.3	1	RES1	0.000	
18	 C43	3.299	50.231	-78.432	C.2	1	RES1	0.000	
19	 C44	1.366	50.680	-79.938	C.2	1	RES1	0.000	
20	 C45	0.886	50.854	-82.697	C.2	1	RES1	0.000	
@<TRIPOS>BOND
1 1 14 2
2 2 18 2
3 5 8 1
4 8 9 ar
5 8 13 ar
6 9 10 ar
7 10 11 ar
8 11 12 ar
9 12 13 ar
10 12 20 ar
11 13 14 ar
12 6 14 ar
13 6 15 1
14 15 16 1
15 15 19 1
16 16 17 1
17 17 18 1
18 7 18 1
19 3 19 2
20 7 19 1
21 4 20 2
22 6 20 ar
@<TRIPOS>SUBSTRUCTURE
1	RES1	1	GROUP	1 ****	RES
