# created with PyMOL 2.5.2
@<TRIPOS>MOLECULE
BTK_7BQU_E3ligase
19 21 1                 
SMALL
USER_CHARGES
@<TRIPOS>ATOM
1	  O3	23.100	17.698	13.667	O.2	1	RES1	0.000	
2	  O4	26.312	20.276	17.921	O.2	1	RES1	0.000	
3	  O5	23.760	19.611	14.248	O.2	1	RES1	0.000	
4	  O6	27.385	17.247	11.912	O.2	1	RES1	0.000	
5	  N8	25.424	17.706	13.128	N.2	1	RES1	0.000	
6	  N9	25.065	19.898	16.059	N.pl3	1	RES1	0.000	
7	 C33	24.471	14.829	9.667	C.2	1	RES1	0.000	
8	 C34	23.164	14.981	10.217	C.2	1	RES1	0.000	
9	 C35	22.939	15.792	11.321	C.2	1	RES1	0.000	
10	 C36	24.032	16.421	11.865	C.2	1	RES1	0.000	
11	 C37	24.092	17.342	12.992	C.2	1	RES1	0.000	
12	 C38	25.974	18.630	14.143	C.3	1	RES1	0.000	
13	 C39	26.832	17.955	15.192	C.3	1	RES1	0.000	
14	 C40	27.363	18.986	16.179	C.3	1	RES1	0.000	
15	 C41	26.224	19.738	16.798	C.2	1	RES1	0.000	
16	 C42	24.817	19.387	14.802	C.2	1	RES1	0.000	
17	 C43	26.203	17.138	12.137	C.2	1	RES1	0.000	
18	 C44	25.293	16.307	11.356	C.2	1	RES1	0.000	
19	 C45	25.546	15.514	10.239	C.2	1	RES1	0.000	
@<TRIPOS>BOND
1 1 11 2
2 2 15 2
3 7 8 ar
4 7 19 ar
5 8 9 ar
6 9 10 ar
7 10 11 ar
8 10 18 ar
9 5 11 ar
10 5 12 1
11 12 13 1
12 12 16 1
13 13 14 1
14 14 15 1
15 6 15 1
16 3 16 2
17 6 16 1
18 4 17 2
19 5 17 ar
20 17 18 ar
21 18 19 ar
@<TRIPOS>SUBSTRUCTURE
1	RES1	1	GROUP	1 ****	RES
