# created with PyMOL 2.5.2
@<TRIPOS>MOLECULE
BTK_6H0G_E3ligase
20 22 1                 
SMALL
USER_CHARGES
@<TRIPOS>ATOM
1	  O3	2.831	53.736	-82.861	O.2	1	RES1	0.000	
2	  O4	3.670	49.705	-77.403	O.2	1	RES1	0.000	
3	  O5	0.231	50.415	-80.226	O.2	1	RES1	0.000	
4	  O6	0.428	49.823	-82.237	O.2	1	RES1	0.000	
5	  N7	1.980	54.441	-85.604	N.pl3	1	RES1	0.000	
6	  N8	1.735	51.772	-82.119	N.2	1	RES1	0.000	
7	  N9	1.991	50.078	-78.877	N.pl3	1	RES1	0.000	
8	 C34	1.344	53.197	-85.430	C.2	1	RES1	0.000	
9	 C35	0.538	52.690	-86.470	C.2	1	RES1	0.000	
10	 C36	-0.210	51.486	-86.278	C.2	1	RES1	0.000	
11	 C37	-0.142	50.791	-85.065	C.2	1	RES1	0.000	
12	 C38	0.639	51.342	-84.073	C.2	1	RES1	0.000	
13	 C39	1.362	52.509	-84.253	C.2	1	RES1	0.000	
14	 C40	2.068	52.782	-83.008	C.2	1	RES1	0.000	
15	 C41	2.244	51.641	-80.753	C.3	1	RES1	0.000	
16	 C42	3.726	51.252	-80.662	C.3	1	RES1	0.000	
17	 C43	4.138	51.204	-79.181	C.3	1	RES1	0.000	
18	 C44	3.281	50.247	-78.394	C.2	1	RES1	0.000	
19	 C45	1.382	50.625	-79.973	C.2	1	RES1	0.000	
20	 C46	0.888	50.855	-82.698	C.2	1	RES1	0.000	
@<TRIPOS>BOND
1 1 14 2
2 2 18 2
3 5 8 1
4 8 9 ar
5 8 13 ar
6 9 10 ar
7 10 11 ar
8 11 12 ar
9 12 13 ar
10 12 20 ar
11 13 14 ar
12 6 14 ar
13 6 15 1
14 15 16 1
15 15 19 1
16 16 17 1
17 17 18 1
18 7 18 1
19 3 19 2
20 7 19 1
21 4 20 2
22 6 20 ar
@<TRIPOS>SUBSTRUCTURE
1	RES1	1	GROUP	1 ****	RES
