# created with PyMOL 2.5.2
@<TRIPOS>MOLECULE
BTK_7BQU_E3ligase
19 21 1                 
SMALL
USER_CHARGES
@<TRIPOS>ATOM
1	  O3	23.113	17.657	13.661	O.2	1	RES1	0.000	
2	  O4	26.334	20.319	17.903	O.2	1	RES1	0.000	
3	  O5	23.784	19.605	14.229	O.2	1	RES1	0.000	
4	  O6	27.385	17.229	11.962	O.2	1	RES1	0.000	
5	  N8	25.429	17.705	13.149	N.2	1	RES1	0.000	
6	  N9	25.090	19.885	16.053	N.pl3	1	RES1	0.000	
7	 C34	24.478	14.848	9.656	C.2	1	RES1	0.000	
8	 C35	23.172	14.994	10.172	C.2	1	RES1	0.000	
9	 C36	22.933	15.792	11.292	C.2	1	RES1	0.000	
10	 C37	24.005	16.436	11.865	C.2	1	RES1	0.000	
11	 C38	24.090	17.316	13.020	C.2	1	RES1	0.000	
12	 C39	25.947	18.617	14.146	C.3	1	RES1	0.000	
13	 C40	26.832	17.941	15.204	C.3	1	RES1	0.000	
14	 C41	27.355	19.006	16.175	C.3	1	RES1	0.000	
15	 C42	26.220	19.772	16.807	C.2	1	RES1	0.000	
16	 C43	24.822	19.400	14.813	C.2	1	RES1	0.000	
17	 C44	26.192	17.097	12.151	C.2	1	RES1	0.000	
18	 C45	25.276	16.315	11.344	C.2	1	RES1	0.000	
19	 C46	25.536	15.520	10.238	C.2	1	RES1	0.000	
@<TRIPOS>BOND
1 1 11 2
2 2 15 2
3 7 8 ar
4 7 19 ar
5 8 9 ar
6 9 10 ar
7 10 11 ar
8 10 18 ar
9 5 11 ar
10 5 12 1
11 12 13 1
12 12 16 1
13 13 14 1
14 14 15 1
15 6 15 1
16 3 16 2
17 6 16 1
18 4 17 2
19 5 17 ar
20 17 18 ar
21 18 19 ar
@<TRIPOS>SUBSTRUCTURE
1	RES1	1	GROUP	1 ****	RES
