# created with PyMOL 2.5.2
@<TRIPOS>MOLECULE
BTK_7BQU_E3ligase
19 21 1                 
SMALL
USER_CHARGES
@<TRIPOS>ATOM
1	  O5	23.135	17.661	13.689	O.2	1	RES1	0.000	
2	  O6	26.342	20.287	17.916	O.2	1	RES1	0.000	
3	  O7	23.779	19.687	14.221	O.2	1	RES1	0.000	
4	  N8	25.404	17.689	13.154	N.2	1	RES1	0.000	
5	  O8	27.394	17.239	11.931	O.2	1	RES1	0.000	
6	  N9	25.071	19.898	16.042	N.pl3	1	RES1	0.000	
7	 C29	24.465	14.850	9.643	C.2	1	RES1	0.000	
8	 C30	23.164	14.953	10.191	C.2	1	RES1	0.000	
9	 C31	22.941	15.781	11.305	C.2	1	RES1	0.000	
10	 C32	24.027	16.427	11.867	C.2	1	RES1	0.000	
11	 C33	24.114	17.356	13.021	C.2	1	RES1	0.000	
12	 C34	25.955	18.608	14.147	C.3	1	RES1	0.000	
13	 C35	26.804	17.940	15.220	C.3	1	RES1	0.000	
14	 C36	27.332	18.950	16.184	C.3	1	RES1	0.000	
15	 C37	26.212	19.770	16.797	C.2	1	RES1	0.000	
16	 C38	24.829	19.404	14.801	C.2	1	RES1	0.000	
17	 C39	26.213	17.129	12.135	C.2	1	RES1	0.000	
18	 C40	25.278	16.314	11.351	C.2	1	RES1	0.000	
19	 C41	25.535	15.510	10.223	C.2	1	RES1	0.000	
@<TRIPOS>BOND
1 7 8 ar
2 7 19 ar
3 8 9 ar
4 9 10 ar
5 10 11 ar
6 10 18 ar
7 1 11 2
8 4 11 ar
9 4 12 1
10 12 13 1
11 12 16 1
12 13 14 1
13 14 15 1
14 2 15 2
15 6 15 1
16 3 16 2
17 6 16 1
18 4 17 ar
19 5 17 2
20 17 18 ar
21 18 19 ar
@<TRIPOS>SUBSTRUCTURE
1	RES1	1	GROUP	1 ****	RES
