# created with PyMOL 2.5.2
@<TRIPOS>MOLECULE
CDK6_6H0G_E3ligase
20 22 1                 
SMALL
USER_CHARGES
@<TRIPOS>ATOM
1	  N6	1.967	54.441	-85.609	N.pl3	1	RES1	0.000	
2	  O6	2.813	53.748	-82.831	O.2	1	RES1	0.000	
3	  N7	1.716	51.765	-82.114	N.2	1	RES1	0.000	
4	  O7	3.687	49.712	-77.401	O.2	1	RES1	0.000	
5	  N8	1.973	50.080	-78.843	N.pl3	1	RES1	0.000	
6	  O8	0.185	50.475	-80.149	O.2	1	RES1	0.000	
7	  O9	0.455	49.851	-82.259	O.2	1	RES1	0.000	
8	 C25	1.322	53.225	-85.455	C.2	1	RES1	0.000	
9	 C26	0.507	52.668	-86.471	C.2	1	RES1	0.000	
10	 C27	-0.158	51.501	-86.289	C.2	1	RES1	0.000	
11	 C28	-0.115	50.774	-85.090	C.2	1	RES1	0.000	
12	 C29	0.654	51.342	-84.078	C.2	1	RES1	0.000	
13	 C30	1.343	52.485	-84.228	C.2	1	RES1	0.000	
14	 C31	2.080	52.794	-83.002	C.2	1	RES1	0.000	
15	 C32	2.239	51.628	-80.752	C.3	1	RES1	0.000	
16	 C33	3.732	51.210	-80.678	C.3	1	RES1	0.000	
17	 C34	4.165	51.160	-79.250	C.3	1	RES1	0.000	
18	 C35	3.273	50.245	-78.418	C.2	1	RES1	0.000	
19	 C36	1.378	50.659	-79.927	C.2	1	RES1	0.000	
20	 C37	0.911	50.829	-82.722	C.2	1	RES1	0.000	
@<TRIPOS>BOND
1 1 8 1
2 8 9 ar
3 8 13 ar
4 9 10 ar
5 10 11 ar
6 11 12 ar
7 12 13 ar
8 12 20 ar
9 13 14 ar
10 2 14 2
11 3 14 ar
12 3 15 1
13 15 16 1
14 15 19 1
15 16 17 1
16 17 18 1
17 4 18 2
18 5 18 1
19 5 19 1
20 6 19 2
21 3 20 ar
22 7 20 2
@<TRIPOS>SUBSTRUCTURE
1	RES1	1	GROUP	1 ****	RES
