# created with PyMOL 2.5.2
@<TRIPOS>MOLECULE
WDR5_6H0G_E3ligase
20 22 1                 
SMALL
USER_CHARGES
@<TRIPOS>ATOM
1	  O2	2.833	53.730	-82.872	O.2	1	RES1	0.000	
2	  O3	3.668	49.693	-77.395	O.2	1	RES1	0.000	
3	  O4	0.204	50.442	-80.209	O.2	1	RES1	0.000	
4	  O5	0.436	49.808	-82.239	O.2	1	RES1	0.000	
5	  N6	1.969	54.440	-85.605	N.pl3	1	RES1	0.000	
6	  N7	1.741	51.767	-82.126	N.2	1	RES1	0.000	
7	  N8	1.989	50.071	-78.851	N.pl3	1	RES1	0.000	
8	 C23	1.340	53.199	-85.476	C.2	1	RES1	0.000	
9	 C24	0.504	52.687	-86.468	C.2	1	RES1	0.000	
10	 C25	-0.199	51.511	-86.284	C.2	1	RES1	0.000	
11	 C26	-0.134	50.793	-85.070	C.2	1	RES1	0.000	
12	 C27	0.651	51.349	-84.069	C.2	1	RES1	0.000	
13	 C28	1.348	52.510	-84.247	C.2	1	RES1	0.000	
14	 C29	2.085	52.775	-82.999	C.2	1	RES1	0.000	
15	 C30	2.266	51.635	-80.743	C.3	1	RES1	0.000	
16	 C31	3.713	51.247	-80.659	C.3	1	RES1	0.000	
17	 C32	4.158	51.181	-79.201	C.3	1	RES1	0.000	
18	 C33	3.271	50.260	-78.402	C.2	1	RES1	0.000	
19	 C34	1.369	50.646	-79.932	C.2	1	RES1	0.000	
20	 C35	0.912	50.850	-82.718	C.2	1	RES1	0.000	
@<TRIPOS>BOND
1 1 14 2
2 2 18 2
3 5 8 1
4 8 9 ar
5 8 13 ar
6 9 10 ar
7 10 11 ar
8 11 12 ar
9 12 13 ar
10 12 20 ar
11 13 14 ar
12 6 14 ar
13 6 15 1
14 15 16 1
15 15 19 1
16 16 17 1
17 17 18 1
18 7 18 1
19 3 19 2
20 7 19 1
21 4 20 2
22 6 20 ar
@<TRIPOS>SUBSTRUCTURE
1	RES1	1	GROUP	1 ****	RES
