# created with PyMOL 2.5.2
@<TRIPOS>MOLECULE
WDR5_6H0G_E3ligase
20 22 1                 
SMALL
USER_CHARGES
@<TRIPOS>ATOM
1	  N6	1.956	54.441	-85.615	N.pl3	1	RES1	0.000	
2	  O6	2.827	53.743	-82.845	O.2	1	RES1	0.000	
3	  N7	1.704	51.798	-82.108	N.2	1	RES1	0.000	
4	  O7	3.697	49.677	-77.421	O.2	1	RES1	0.000	
5	  N8	2.012	50.071	-78.863	N.pl3	1	RES1	0.000	
6	  O8	0.174	50.427	-80.180	O.2	1	RES1	0.000	
7	  O9	0.443	49.832	-82.254	O.2	1	RES1	0.000	
8	 C29	1.333	53.184	-85.447	C.2	1	RES1	0.000	
9	 C30	0.531	52.669	-86.473	C.2	1	RES1	0.000	
10	 C31	-0.162	51.474	-86.290	C.2	1	RES1	0.000	
11	 C32	-0.105	50.781	-85.073	C.2	1	RES1	0.000	
12	 C33	0.671	51.331	-84.057	C.2	1	RES1	0.000	
13	 C34	1.351	52.516	-84.238	C.2	1	RES1	0.000	
14	 C35	2.056	52.808	-82.988	C.2	1	RES1	0.000	
15	 C36	2.216	51.657	-80.736	C.3	1	RES1	0.000	
16	 C37	3.703	51.246	-80.679	C.3	1	RES1	0.000	
17	 C38	4.146	51.186	-79.223	C.3	1	RES1	0.000	
18	 C39	3.290	50.230	-78.431	C.2	1	RES1	0.000	
19	 C40	1.373	50.655	-79.947	C.2	1	RES1	0.000	
20	 C41	0.910	50.870	-82.700	C.2	1	RES1	0.000	
@<TRIPOS>BOND
1 1 8 1
2 8 9 ar
3 8 13 ar
4 9 10 ar
5 10 11 ar
6 11 12 ar
7 12 13 ar
8 12 20 ar
9 13 14 ar
10 2 14 2
11 3 14 ar
12 3 15 1
13 15 16 1
14 15 19 1
15 16 17 1
16 17 18 1
17 4 18 2
18 5 18 1
19 5 19 1
20 6 19 2
21 3 20 ar
22 7 20 2
@<TRIPOS>SUBSTRUCTURE
1	RES1	1	GROUP	1 ****	RES
