# created with PyMOL 2.5.2
@<TRIPOS>MOLECULE
CDK6_6H0G_E3ligase
20 22 1                 
SMALL
USER_CHARGES
@<TRIPOS>ATOM
1	  O3	2.782	53.780	-82.819	O.2	1	RES1	0.000	
2	  O4	3.696	49.641	-77.462	O.2	1	RES1	0.000	
3	  N5	1.958	54.454	-85.588	N.pl3	1	RES1	0.000	
4	  O5	0.188	50.483	-80.173	O.2	1	RES1	0.000	
5	  N6	1.711	51.827	-82.100	N.2	1	RES1	0.000	
6	  O6	0.469	49.816	-82.238	O.2	1	RES1	0.000	
7	  N7	1.985	50.083	-78.879	N.pl3	1	RES1	0.000	
8	 C17	1.329	53.213	-85.424	C.2	1	RES1	0.000	
9	 C18	0.547	52.645	-86.480	C.2	1	RES1	0.000	
10	 C19	-0.139	51.442	-86.282	C.2	1	RES1	0.000	
11	 C20	-0.090	50.747	-85.074	C.2	1	RES1	0.000	
12	 C21	0.681	51.331	-84.061	C.2	1	RES1	0.000	
13	 C22	1.335	52.503	-84.220	C.2	1	RES1	0.000	
14	 C23	2.031	52.804	-82.982	C.2	1	RES1	0.000	
15	 C24	2.209	51.670	-80.748	C.3	1	RES1	0.000	
16	 C25	3.711	51.254	-80.706	C.3	1	RES1	0.000	
17	 C26	4.172	51.161	-79.237	C.3	1	RES1	0.000	
18	 C27	3.283	50.190	-78.453	C.2	1	RES1	0.000	
19	 C28	1.371	50.686	-79.953	C.2	1	RES1	0.000	
20	 C29	0.898	50.864	-82.687	C.2	1	RES1	0.000	
@<TRIPOS>BOND
1 3 8 1
2 8 9 ar
3 8 13 ar
4 9 10 ar
5 10 11 ar
6 11 12 ar
7 12 13 ar
8 12 20 ar
9 13 14 ar
10 1 14 2
11 5 14 ar
12 5 15 1
13 15 16 1
14 15 19 1
15 16 17 1
16 17 18 1
17 2 18 2
18 7 18 1
19 4 19 2
20 7 19 1
21 5 20 ar
22 6 20 2
@<TRIPOS>SUBSTRUCTURE
1	RES1	1	GROUP	1 ****	RES
