# created with PyMOL 2.5.2
@<TRIPOS>MOLECULE
MLLT1_6H0G_E3ligase
20 22 1                 
SMALL
USER_CHARGES
@<TRIPOS>ATOM
1	  O2	2.798	53.775	-82.835	O.2	1	RES1	0.000	
2	  O3	3.695	49.650	-77.414	O.3	1	RES1	0.000	
3	  O4	0.199	50.466	-80.202	O.2	1	RES1	0.000	
4	  O5	0.456	49.821	-82.261	O.2	1	RES1	0.000	
5	  N6	1.959	54.442	-85.617	N.pl3	1	RES1	0.000	
6	  N7	1.723	51.804	-82.102	N.2	1	RES1	0.000	
7	  N8	1.991	50.070	-78.854	N.pl3	1	RES1	0.000	
8	 C28	1.325	53.205	-85.442	C.2	1	RES1	0.000	
9	 C29	0.530	52.673	-86.463	C.2	1	RES1	0.000	
10	 C30	-0.164	51.451	-86.301	C.2	1	RES1	0.000	
11	 C31	-0.104	50.769	-85.072	C.2	1	RES1	0.000	
12	 C32	0.659	51.354	-84.078	C.2	1	RES1	0.000	
13	 C33	1.346	52.509	-84.241	C.2	1	RES1	0.000	
14	 C34	2.062	52.798	-82.983	C.2	1	RES1	0.000	
15	 C35	2.235	51.655	-80.724	C.3	1	RES1	0.000	
16	 C36	3.690	51.249	-80.677	C.3	1	RES1	0.000	
17	 C37	4.148	51.176	-79.235	C.3	1	RES1	0.000	
18	 C38	3.294	50.221	-78.436	C.3	1	RES1	0.000	
19	 C39	1.382	50.665	-79.943	C.2	1	RES1	0.000	
20	 C40	0.903	50.841	-82.688	C.2	1	RES1	0.000	
@<TRIPOS>BOND
1 1 14 2
2 2 18 1
3 5 8 1
4 8 9 ar
5 8 13 ar
6 9 10 ar
7 10 11 ar
8 11 12 ar
9 12 13 ar
10 12 20 ar
11 13 14 ar
12 6 14 ar
13 6 15 1
14 15 16 1
15 15 19 1
16 16 17 1
17 17 18 1
18 7 18 1
19 3 19 2
20 7 19 1
21 4 20 2
22 6 20 ar
@<TRIPOS>SUBSTRUCTURE
1	RES1	1	GROUP	1 ****	RES
