# created with PyMOL 2.5.2
@<TRIPOS>MOLECULE
MLLT1_6H0G_E3ligase
20 22 1                 
SMALL
USER_CHARGES
@<TRIPOS>ATOM
1	  O2	2.796	53.740	-82.842	O.2	1	RES1	0.000	
2	  O3	3.713	49.705	-77.418	O.2	1	RES1	0.000	
3	  O4	0.190	50.438	-80.159	O.2	1	RES1	0.000	
4	  O5	0.437	49.826	-82.274	O.2	1	RES1	0.000	
5	  N6	1.980	54.432	-85.603	N.pl3	1	RES1	0.000	
6	  N7	1.708	51.794	-82.100	N.2	1	RES1	0.000	
7	  N8	1.987	50.082	-78.849	N.pl3	1	RES1	0.000	
8	 C26	1.347	53.203	-85.446	C.2	1	RES1	0.000	
9	 C27	0.532	52.677	-86.462	C.2	1	RES1	0.000	
10	 C28	-0.163	51.485	-86.284	C.2	1	RES1	0.000	
11	 C29	-0.105	50.779	-85.075	C.2	1	RES1	0.000	
12	 C30	0.662	51.331	-84.066	C.2	1	RES1	0.000	
13	 C31	1.344	52.508	-84.256	C.2	1	RES1	0.000	
14	 C32	2.050	52.799	-83.002	C.2	1	RES1	0.000	
15	 C33	2.226	51.651	-80.738	C.3	1	RES1	0.000	
16	 C34	3.697	51.235	-80.686	C.3	1	RES1	0.000	
17	 C35	4.152	51.188	-79.244	C.3	1	RES1	0.000	
18	 C36	3.294	50.234	-78.420	C.2	1	RES1	0.000	
19	 C37	1.369	50.641	-79.928	C.2	1	RES1	0.000	
20	 C38	0.910	50.844	-82.715	C.2	1	RES1	0.000	
@<TRIPOS>BOND
1 1 14 2
2 2 18 2
3 5 8 1
4 8 9 ar
5 8 13 ar
6 9 10 ar
7 10 11 ar
8 11 12 ar
9 12 13 ar
10 12 20 ar
11 13 14 ar
12 6 14 ar
13 6 15 1
14 15 16 1
15 15 19 1
16 16 17 1
17 17 18 1
18 7 18 1
19 3 19 2
20 7 19 1
21 4 20 2
22 6 20 ar
@<TRIPOS>SUBSTRUCTURE
1	RES1	1	GROUP	1 ****	RES
