# created with PyMOL 2.5.2
@<TRIPOS>MOLECULE
MLLT1_6H0G_E3ligase
20 22 1                 
SMALL
USER_CHARGES
@<TRIPOS>ATOM
1	  O2	2.835	53.756	-82.849	O.2	1	RES1	0.000	
2	  O3	3.667	49.672	-77.413	O.3	1	RES1	0.000	
3	  O4	0.232	50.399	-80.247	O.2	1	RES1	0.000	
4	  O5	0.416	49.841	-82.241	O.2	1	RES1	0.000	
5	  N6	1.986	54.448	-85.636	N.pl3	1	RES1	0.000	
6	  N7	1.734	51.790	-82.116	N.2	1	RES1	0.000	
7	  N8	1.992	50.053	-78.869	N.pl3	1	RES1	0.000	
8	 C24	1.331	53.198	-85.452	C.2	1	RES1	0.000	
9	 C25	0.509	52.666	-86.465	C.2	1	RES1	0.000	
10	 C26	-0.198	51.479	-86.285	C.2	1	RES1	0.000	
11	 C27	-0.126	50.768	-85.065	C.2	1	RES1	0.000	
12	 C28	0.655	51.344	-84.061	C.2	1	RES1	0.000	
13	 C29	1.362	52.512	-84.244	C.2	1	RES1	0.000	
14	 C30	2.067	52.807	-82.991	C.2	1	RES1	0.000	
15	 C31	2.242	51.654	-80.727	C.3	1	RES1	0.000	
16	 C32	3.720	51.281	-80.655	C.3	1	RES1	0.000	
17	 C33	4.134	51.189	-79.185	C.3	1	RES1	0.000	
18	 C34	3.284	50.234	-78.405	C.3	1	RES1	0.000	
19	 C35	1.389	50.638	-79.975	C.2	1	RES1	0.000	
20	 C36	0.893	50.863	-82.687	C.2	1	RES1	0.000	
@<TRIPOS>BOND
1 1 14 2
2 2 18 1
3 5 8 1
4 8 9 ar
5 8 13 ar
6 9 10 ar
7 10 11 ar
8 11 12 ar
9 12 13 ar
10 12 20 ar
11 13 14 ar
12 6 14 ar
13 6 15 1
14 15 16 1
15 15 19 1
16 16 17 1
17 17 18 1
18 7 18 1
19 3 19 2
20 7 19 1
21 4 20 2
22 6 20 ar
@<TRIPOS>SUBSTRUCTURE
1	RES1	1	GROUP	1 ****	RES
