# created with PyMOL 2.5.2
@<TRIPOS>MOLECULE
BTK_4HG7_E3ligase
39 43 1                 
SMALL
USER_CHARGES
@<TRIPOS>ATOM
1	 CL1	-27.370	14.089	-13.328	Cl	1	RES1	0.000	
2	  C1	-29.148	2.391	-14.833	C.3	1	RES1	0.000	
3	  N1	-25.421	7.669	-12.449	N.3	1	RES1	0.000	
4	  O1	-27.721	2.305	-15.027	O.3	1	RES1	0.000	
5	  C2	-26.966	3.412	-14.668	C.2	1	RES1	0.000	
6	  N2	-23.887	7.553	-14.120	N.pl3	1	RES1	0.000	
7	  O2	-23.601	6.770	-16.226	O.2	1	RES1	0.000	
8	  C3	-27.689	4.478	-14.155	C.2	1	RES1	0.000	
9	  N3	-21.811	6.613	-14.784	N.pl3	1	RES1	0.000	
10	  C4	-27.052	5.647	-13.780	C.2	1	RES1	0.000	
11	  N4	-19.035	6.149	-14.394	N.pl3	1	RES1	0.000	
12	  C5	-25.635	5.758	-13.876	C.2	1	RES1	0.000	
13	  C6	-24.995	7.010	-13.491	C.3	1	RES1	0.000	
14	  C7	-24.469	8.856	-12.292	C.3	1	RES1	0.000	
15	  C8	-25.224	10.153	-12.489	C.2	1	RES1	0.000	
16	  O8	-18.844	5.086	-16.361	O.2	1	RES1	0.000	
17	  C9	-26.576	10.319	-12.223	C.2	1	RES1	0.000	
18	  O9	-23.499	4.852	-14.450	O.3	1	RES1	0.000	
19	 C10	-27.247	11.504	-12.481	C.2	1	RES1	0.000	
20	 C11	-26.540	12.576	-12.998	C.2	1	RES1	0.000	
21	 C12	-25.184	12.445	-13.304	C.2	1	RES1	0.000	
22	 C13	-24.529	11.266	-13.044	C.2	1	RES1	0.000	
23	 C14	-23.312	8.529	-13.217	C.3	1	RES1	0.000	
24	 C15	-22.622	9.720	-13.891	C.2	1	RES1	0.000	
25	 C16	-23.035	10.260	-15.108	C.2	1	RES1	0.000	
26	 C17	-22.380	11.353	-15.657	C.2	1	RES1	0.000	
27	 C18	-21.317	11.921	-14.989	C.2	1	RES1	0.000	
28	 C19	-20.886	11.424	-13.764	C.2	1	RES1	0.000	
29	 C20	-21.530	10.281	-13.236	C.2	1	RES1	0.000	
30	 C21	-23.110	6.938	-15.129	C.2	1	RES1	0.000	
31	 C22	-21.275	6.608	-13.440	C.3	1	RES1	0.000	
32	 C23	-19.784	6.998	-13.454	C.3	1	RES1	0.000	
33	 C60	-19.528	5.664	-15.564	C.2	1	RES1	0.000	
34	 C61	-21.038	5.840	-15.802	C.3	1	RES1	0.000	
35	 C62	-24.919	4.669	-14.393	C.2	1	RES1	0.000	
36	 C63	-22.623	3.741	-14.694	C.3	1	RES1	0.000	
37	 C64	-22.618	3.415	-16.184	C.3	1	RES1	0.000	
38	 C65	-23.114	2.576	-13.863	C.3	1	RES1	0.000	
39	 C66	-25.567	3.502	-14.794	C.2	1	RES1	0.000	
@<TRIPOS>BOND
1 1 20 1
2 2 4 1
3 3 13 1
4 3 14 1
5 4 5 1
6 5 8 ar
7 5 39 ar
8 6 13 1
9 6 30 1
10 7 30 2
11 8 10 ar
12 9 34 1
13 10 12 ar
14 11 33 1
15 12 13 1
16 12 35 ar
17 14 15 1
18 15 17 ar
19 17 19 ar
20 19 20 ar
21 20 21 ar
22 21 22 ar
23 15 22 ar
24 6 23 1
25 14 23 1
26 23 24 1
27 24 25 ar
28 24 29 ar
29 25 26 ar
30 26 27 ar
31 27 28 ar
32 28 29 ar
33 9 30 1
34 9 31 1
35 31 32 1
36 11 32 1
37 16 33 2
38 33 34 1
39 18 35 1
40 35 39 ar
41 18 36 1
42 36 37 1
43 36 38 1
@<TRIPOS>SUBSTRUCTURE
1	RES1	1	GROUP	1 ****	RES
