# created with PyMOL 2.5.2
@<TRIPOS>MOLECULE
CDK6_4HG7_E3ligase
39 43 1                 
SMALL
USER_CHARGES
@<TRIPOS>ATOM
1	 CL1	-25.848	14.588	-11.651	Cl	1	RES1	0.000	
2	  C1	-29.154	2.393	-14.984	C.3	1	RES1	0.000	
3	  N1	-25.204	7.849	-12.611	N.3	1	RES1	0.000	
4	  O1	-27.743	2.305	-14.791	O.3	1	RES1	0.000	
5	  C2	-27.087	3.480	-14.457	C.2	1	RES1	0.000	
6	  N2	-23.512	7.198	-13.987	N.pl3	1	RES1	0.000	
7	  O2	-23.279	5.572	-15.550	O.2	1	RES1	0.000	
8	  C3	-27.691	4.727	-14.293	C.2	1	RES1	0.000	
9	  N3	-21.367	6.577	-14.763	N.pl3	1	RES1	0.000	
10	  C4	-26.910	5.849	-13.965	C.2	1	RES1	0.000	
11	  N4	-18.707	7.523	-14.942	N.pl3	1	RES1	0.000	
12	  C5	-25.541	5.707	-13.786	C.2	1	RES1	0.000	
13	  C6	-24.747	6.917	-13.420	C.3	1	RES1	0.000	
14	  C7	-24.127	8.836	-12.501	C.3	1	RES1	0.000	
15	  O7	-18.523	6.544	-16.971	O.2	1	RES1	0.000	
16	  C8	-24.584	10.285	-12.275	C.2	1	RES1	0.000	
17	  O8	-23.516	4.437	-13.743	O.3	1	RES1	0.000	
18	  C9	-25.710	10.598	-11.493	C.2	1	RES1	0.000	
19	 C10	-26.093	11.910	-11.299	C.2	1	RES1	0.000	
20	 C11	-25.357	12.947	-11.892	C.2	1	RES1	0.000	
21	 C12	-24.222	12.662	-12.630	C.2	1	RES1	0.000	
22	 C13	-23.824	11.353	-12.822	C.2	1	RES1	0.000	
23	 C14	-23.236	8.623	-13.740	C.3	1	RES1	0.000	
24	 C15	-23.557	9.495	-14.970	C.2	1	RES1	0.000	
25	 C16	-23.146	10.843	-15.082	C.2	1	RES1	0.000	
26	 C17	-23.449	11.570	-16.234	C.2	1	RES1	0.000	
27	 C18	-24.163	10.982	-17.261	C.2	1	RES1	0.000	
28	 C19	-24.584	9.662	-17.158	C.2	1	RES1	0.000	
29	 C20	-24.268	8.919	-15.997	C.2	1	RES1	0.000	
30	 C21	-22.720	6.405	-14.811	C.2	1	RES1	0.000	
31	 C22	-20.853	7.472	-13.711	C.3	1	RES1	0.000	
32	 C23	-19.299	7.503	-13.636	C.3	1	RES1	0.000	
33	 C57	-19.165	6.691	-15.934	C.2	1	RES1	0.000	
34	 C58	-20.382	5.848	-15.583	C.3	1	RES1	0.000	
35	 C59	-24.886	4.483	-13.939	C.2	1	RES1	0.000	
36	 C60	-22.859	3.170	-13.662	C.3	1	RES1	0.000	
37	 C61	-22.647	2.594	-15.048	C.3	1	RES1	0.000	
38	 C62	-23.788	2.242	-12.852	C.3	1	RES1	0.000	
39	 C63	-25.704	3.350	-14.287	C.2	1	RES1	0.000	
@<TRIPOS>BOND
1 1 20 1
2 2 4 1
3 3 13 1
4 3 14 1
5 4 5 1
6 5 8 ar
7 5 39 ar
8 6 13 1
9 6 30 1
10 7 30 2
11 8 10 ar
12 9 34 1
13 10 12 ar
14 11 33 1
15 12 13 1
16 12 35 ar
17 14 16 1
18 16 18 ar
19 18 19 ar
20 19 20 ar
21 20 21 ar
22 21 22 ar
23 16 22 ar
24 6 23 1
25 14 23 1
26 23 24 1
27 24 25 ar
28 24 29 ar
29 25 26 ar
30 26 27 ar
31 27 28 ar
32 28 29 ar
33 9 30 1
34 9 31 1
35 31 32 1
36 11 32 1
37 15 33 2
38 33 34 1
39 17 35 1
40 35 39 ar
41 17 36 1
42 36 37 1
43 36 38 1
@<TRIPOS>SUBSTRUCTURE
1	RES1	1	GROUP	1 ****	RES
