# created with PyMOL 2.5.2
@<TRIPOS>MOLECULE
CDK6_4HG7_E3ligase
39 46 1                 
SMALL
USER_CHARGES
@<TRIPOS>ATOM
1	 CL1	-26.069	14.277	-14.793	Cl	1	RES1	0.000	
2	  C1	-28.876	2.307	-16.466	C.3	1	RES1	0.000	
3	  N1	-26.083	7.766	-12.910	N.3	1	RES1	0.000	
4	  O1	-27.549	2.262	-15.935	O.3	1	RES1	0.000	
5	  C2	-27.060	3.479	-15.399	C.2	1	RES1	0.000	
6	  N2	-23.984	7.228	-13.612	N.3	1	RES1	0.000	
7	  O2	-22.894	5.234	-13.498	O.3	1	RES1	0.000	
8	  C3	-27.762	4.680	-15.377	C.2	1	RES1	0.000	
9	  N3	-22.082	6.812	-14.964	N.3	1	RES1	0.000	
10	  C4	-27.196	5.785	-14.745	C.2	1	RES1	0.000	
11	  N4	-19.708	7.845	-16.074	N.pl3	1	RES1	0.000	
12	  C5	-25.922	5.712	-14.205	C.2	1	RES1	0.000	
13	  C6	-25.331	6.932	-13.573	C.3	1	RES1	0.000	
14	  C7	-25.160	8.798	-12.359	C.3	1	RES1	0.000	
15	  C8	-25.416	10.161	-12.956	C.2	1	RES1	0.000	
16	  O8	-19.175	5.812	-16.980	O.2	1	RES1	0.000	
17	  C9	-26.689	10.559	-13.444	C.2	1	RES1	0.000	
18	  O9	-23.934	4.527	-13.654	O.3	1	RES1	0.000	
19	 C10	-26.878	11.828	-13.985	C.2	1	RES1	0.000	
20	 C11	-25.818	12.707	-14.090	C.2	1	RES1	0.000	
21	 C12	-24.554	12.373	-13.623	C.2	1	RES1	0.000	
22	 C13	-24.357	11.095	-13.040	C.2	1	RES1	0.000	
23	 C14	-23.763	8.194	-12.596	C.3	1	RES1	0.000	
24	 C15	-22.611	9.172	-12.833	C.3	1	RES1	0.000	
25	 C16	-22.307	9.666	-14.146	C.3	1	RES1	0.000	
26	 C17	-21.280	10.572	-14.323	C.3	1	RES1	0.000	
27	 C18	-20.551	11.024	-13.266	C.3	1	RES1	0.000	
28	 C19	-20.836	10.584	-11.976	C.3	1	RES1	0.000	
29	 C20	-21.874	9.676	-11.770	C.3	1	RES1	0.000	
30	 C21	-22.978	6.333	-14.013	C.3	1	RES1	0.000	
31	 C22	-21.984	8.222	-15.212	C.3	1	RES1	0.000	
32	 C23	-20.535	8.658	-15.228	C.3	1	RES1	0.000	
33	 C59	-19.967	6.496	-16.336	C.2	1	RES1	0.000	
34	 C60	-21.345	5.964	-15.943	C.3	1	RES1	0.000	
35	 C61	-25.185	4.514	-14.246	C.2	1	RES1	0.000	
36	 C62	-23.162	3.319	-13.394	C.3	1	RES1	0.000	
37	 C63	-22.233	3.403	-12.226	C.3	1	RES1	0.000	
38	 C64	-22.549	2.739	-14.702	C.3	1	RES1	0.000	
39	 C65	-25.799	3.392	-14.841	C.2	1	RES1	0.000	
@<TRIPOS>BOND
1 1 20 1
2 2 4 1
3 3 13 1
4 3 14 1
5 4 5 1
6 5 8 ar
7 5 39 ar
8 6 13 1
9 6 30 1
10 7 18 1
11 7 30 1
12 7 36 1
13 8 10 ar
14 9 34 1
15 10 12 ar
16 11 33 1
17 12 13 1
18 12 35 ar
19 14 15 1
20 15 17 ar
21 17 19 ar
22 19 20 ar
23 20 21 ar
24 21 22 ar
25 15 22 ar
26 6 23 1
27 14 23 1
28 23 24 1
29 24 25 1
30 24 29 1
31 25 26 1
32 25 31 1
33 26 27 1
34 27 28 1
35 28 29 1
36 9 30 1
37 9 31 1
38 31 32 1
39 11 32 1
40 16 33 2
41 33 34 1
42 18 35 1
43 35 39 ar
44 18 36 1
45 36 37 1
46 36 38 1
@<TRIPOS>SUBSTRUCTURE
1	RES1	1	GROUP	1 ****	RES
