# created with PyMOL 2.5.2
@<TRIPOS>MOLECULE
CDK6_4HG7_E3ligase
39 45 1                 
SMALL
USER_CHARGES
@<TRIPOS>ATOM
1	 CL1	-26.204	14.208	-14.823	Cl	1	RES1	0.000	
2	  C1	-29.033	2.709	-16.334	C.3	1	RES1	0.000	
3	  N1	-25.985	7.734	-12.860	N.3	1	RES1	0.000	
4	  O1	-27.703	2.374	-15.907	O.3	1	RES1	0.000	
5	  C2	-26.988	3.409	-15.268	C.2	1	RES1	0.000	
6	  N2	-23.913	7.217	-13.599	N.3	1	RES1	0.000	
7	  O2	-22.688	5.292	-13.568	O.3	1	RES1	0.000	
8	  C3	-27.721	4.616	-15.183	C.2	1	RES1	0.000	
9	  N3	-22.009	6.901	-14.997	N.3	1	RES1	0.000	
10	  C4	-27.125	5.738	-14.612	C.2	1	RES1	0.000	
11	  N4	-19.688	7.943	-16.161	N.pl3	1	RES1	0.000	
12	  C5	-25.831	5.666	-14.143	C.2	1	RES1	0.000	
13	  C6	-25.248	6.921	-13.512	C.3	1	RES1	0.000	
14	  C7	-25.087	8.799	-12.354	C.3	1	RES1	0.000	
15	  C8	-25.398	10.157	-12.952	C.2	1	RES1	0.000	
16	  C9	-26.697	10.503	-13.397	C.2	1	RES1	0.000	
17	  O9	-19.130	5.946	-17.055	O.2	1	RES1	0.000	
18	 C10	-26.944	11.723	-13.951	C.2	1	RES1	0.000	
19	 O10	-23.813	4.518	-13.567	O.3	1	RES1	0.000	
20	 C11	-25.892	12.665	-14.109	C.2	1	RES1	0.000	
21	 C12	-24.612	12.336	-13.674	C.2	1	RES1	0.000	
22	 C13	-24.362	11.111	-13.088	C.2	1	RES1	0.000	
23	 C14	-23.683	8.221	-12.559	C.3	1	RES1	0.000	
24	 C15	-22.574	9.226	-12.888	C.3	1	RES1	0.000	
25	 C16	-22.275	9.641	-14.170	C.3	1	RES1	0.000	
26	 C17	-21.284	10.559	-14.432	C.3	1	RES1	0.000	
27	 C18	-20.569	11.108	-13.356	C.3	1	RES1	0.000	
28	 C19	-20.827	10.723	-12.081	C.3	1	RES1	0.000	
29	 C20	-21.825	9.801	-11.825	C.3	1	RES1	0.000	
30	 C21	-22.871	6.378	-14.023	C.3	1	RES1	0.000	
31	 C22	-21.958	8.306	-15.271	C.3	1	RES1	0.000	
32	 C23	-20.519	8.770	-15.306	C.3	1	RES1	0.000	
33	 C61	-19.906	6.627	-16.410	C.2	1	RES1	0.000	
34	 C62	-21.281	6.057	-15.982	C.3	1	RES1	0.000	
35	 C63	-25.105	4.480	-14.159	C.2	1	RES1	0.000	
36	 C64	-23.016	3.316	-13.338	C.3	1	RES1	0.000	
37	 C65	-22.311	2.813	-14.551	C.3	1	RES1	0.000	
38	 C66	-23.714	2.269	-12.502	C.3	1	RES1	0.000	
39	 C67	-25.670	3.329	-14.764	C.2	1	RES1	0.000	
@<TRIPOS>BOND
1 1 20 1
2 2 4 1
3 3 13 1
4 3 14 1
5 4 5 1
6 5 8 ar
7 5 39 ar
8 6 13 1
9 6 30 1
10 7 30 1
11 8 10 ar
12 9 34 1
13 10 12 ar
14 11 33 1
15 12 13 1
16 12 35 ar
17 14 15 1
18 15 16 ar
19 16 18 ar
20 18 20 ar
21 7 19 1
22 19 35 1
23 19 36 1
24 20 21 ar
25 21 22 ar
26 15 22 ar
27 6 23 1
28 14 23 1
29 23 24 1
30 24 25 1
31 24 29 1
32 25 26 1
33 25 31 1
34 26 27 1
35 27 28 1
36 28 29 1
37 9 30 1
38 9 31 1
39 31 32 1
40 11 32 1
41 17 33 2
42 33 34 1
43 35 39 ar
44 36 37 1
45 36 38 1
@<TRIPOS>SUBSTRUCTURE
1	RES1	1	GROUP	1 ****	RES
