# created with PyMOL 2.5.2
@<TRIPOS>MOLECULE
CDK6_6H0G_E3ligase
20 22 1                 
SMALL
USER_CHARGES
@<TRIPOS>ATOM
1	  N6	1.982	54.444	-85.625	N.pl3	1	RES1	0.000	
2	  O6	2.841	53.740	-82.867	O.2	1	RES1	0.000	
3	  N7	1.755	51.773	-82.117	N.2	1	RES1	0.000	
4	  O7	3.658	49.675	-77.404	O.3	1	RES1	0.000	
5	  N8	1.984	50.060	-78.895	N.pl3	1	RES1	0.000	
6	  O8	0.226	50.416	-80.233	O.2	1	RES1	0.000	
7	  O9	0.426	49.836	-82.228	O.2	1	RES1	0.000	
8	 C25	1.302	53.195	-85.451	C.2	1	RES1	0.000	
9	 C26	0.504	52.678	-86.467	C.2	1	RES1	0.000	
10	 C27	-0.209	51.504	-86.264	C.2	1	RES1	0.000	
11	 C28	-0.134	50.781	-85.059	C.2	1	RES1	0.000	
12	 C29	0.677	51.331	-84.064	C.2	1	RES1	0.000	
13	 C30	1.350	52.493	-84.249	C.2	1	RES1	0.000	
14	 C31	2.088	52.794	-83.022	C.2	1	RES1	0.000	
15	 C32	2.261	51.643	-80.751	C.3	1	RES1	0.000	
16	 C33	3.728	51.261	-80.646	C.3	1	RES1	0.000	
17	 C34	4.145	51.186	-79.169	C.3	1	RES1	0.000	
18	 C35	3.265	50.239	-78.382	C.3	1	RES1	0.000	
19	 C36	1.376	50.659	-79.976	C.2	1	RES1	0.000	
20	 C37	0.900	50.884	-82.699	C.2	1	RES1	0.000	
@<TRIPOS>BOND
1 1 8 1
2 8 9 ar
3 8 13 ar
4 9 10 ar
5 10 11 ar
6 11 12 ar
7 12 13 ar
8 12 20 ar
9 13 14 ar
10 2 14 2
11 3 14 ar
12 3 15 1
13 15 16 1
14 15 19 1
15 16 17 1
16 17 18 1
17 4 18 1
18 5 18 1
19 5 19 1
20 6 19 2
21 3 20 ar
22 7 20 2
@<TRIPOS>SUBSTRUCTURE
1	RES1	1	GROUP	1 ****	RES
