# created with PyMOL 2.5.2
@<TRIPOS>MOLECULE
BRD7_5NVV_E3ligase
34 36 1                 
SMALL
USER_CHARGES
@<TRIPOS>ATOM
1	  S1	15.876	51.676	82.340	S.2	1	RES1	0.000	
2	  N5	11.464	54.419	94.203	N.pl3	1	RES1	0.000	
3	  O5	10.466	57.471	96.051	O.3	1	RES1	0.000	
4	  N6	13.124	54.165	91.045	N.pl3	1	RES1	0.000	
5	  O6	12.641	56.328	94.770	O.2	1	RES1	0.000	
6	  N7	11.510	53.229	87.911	N.pl3	1	RES1	0.000	
7	  O7	10.963	53.625	91.626	O.2	1	RES1	0.000	
8	  N8	14.957	50.464	80.279	N.2	1	RES1	0.000	
9	  O8	14.418	56.806	90.335	O.3	1	RES1	0.000	
10	  O9	12.820	51.932	89.274	O.2	1	RES1	0.000	
11	 C25	10.341	56.175	95.471	C.3	1	RES1	0.000	
12	 C26	11.603	55.673	94.797	C.2	1	RES1	0.000	
13	 C27	12.520	53.761	93.476	C.3	1	RES1	0.000	
14	 C28	12.105	53.860	91.986	C.2	1	RES1	0.000	
15	 C29	14.480	54.618	91.335	C.3	1	RES1	0.000	
16	 C30	14.870	55.465	90.122	C.3	1	RES1	0.000	
17	 C31	14.099	54.842	88.992	C.3	1	RES1	0.000	
18	 C32	12.801	54.335	89.637	C.3	1	RES1	0.000	
19	 C33	12.358	53.039	88.948	C.2	1	RES1	0.000	
20	 C34	11.006	52.114	87.123	C.3	1	RES1	0.000	
21	 C35	11.868	51.861	85.888	C.2	1	RES1	0.000	
22	 C36	12.711	52.824	85.414	C.2	1	RES1	0.000	
23	 C37	13.501	52.607	84.284	C.2	1	RES1	0.000	
24	 C38	13.435	51.373	83.587	C.2	1	RES1	0.000	
25	 C39	14.261	51.128	82.404	C.2	1	RES1	0.000	
26	 C40	13.923	50.518	81.204	C.2	1	RES1	0.000	
27	 C41	12.623	49.955	80.781	C.3	1	RES1	0.000	
28	 C42	16.049	51.036	80.780	C.2	1	RES1	0.000	
29	 C43	12.575	50.391	84.110	C.2	1	RES1	0.000	
30	 C44	11.796	50.626	85.248	C.2	1	RES1	0.000	
31	 C45	12.752	52.273	93.963	C.3	1	RES1	0.000	
32	 C46	13.646	51.472	92.996	C.3	1	RES1	0.000	
33	 C47	13.387	52.256	95.358	C.3	1	RES1	0.000	
34	 C48	11.403	51.553	94.095	C.3	1	RES1	0.000	
@<TRIPOS>BOND
1 1 25 ar
2 1 28 ar
3 3 11 1
4 11 12 1
5 2 12 1
6 5 12 2
7 2 13 1
8 13 14 1
9 13 31 1
10 4 14 1
11 7 14 2
12 4 15 1
13 15 16 1
14 9 16 1
15 16 17 1
16 17 18 1
17 4 18 1
18 18 19 1
19 6 19 1
20 10 19 2
21 6 20 1
22 20 21 1
23 21 22 ar
24 21 30 ar
25 22 23 ar
26 23 24 ar
27 24 25 1
28 24 29 ar
29 25 26 ar
30 8 26 ar
31 26 27 1
32 8 28 ar
33 29 30 ar
34 31 32 1
35 31 33 1
36 31 34 1
@<TRIPOS>SUBSTRUCTURE
1	RES1	1	GROUP	1 ****	RES
