# created with PyMOL 2.5.2
@<TRIPOS>MOLECULE
BRD9_5NVV_E3ligase
34 36 1                 
SMALL
USER_CHARGES
@<TRIPOS>ATOM
1	  S1	15.909	51.637	82.432	S.2	1	RES1	0.000	
2	  N5	11.420	54.442	94.186	N.pl3	1	RES1	0.000	
3	  O5	10.494	57.480	96.043	O.3	1	RES1	0.000	
4	  N6	13.160	54.136	91.035	N.pl3	1	RES1	0.000	
5	  O6	12.667	56.300	94.809	O.2	1	RES1	0.000	
6	  N7	11.479	53.176	87.882	N.pl3	1	RES1	0.000	
7	  O7	11.008	53.626	91.595	O.2	1	RES1	0.000	
8	  N8	15.005	50.525	80.299	N.2	1	RES1	0.000	
9	  O8	14.446	56.805	90.355	O.3	1	RES1	0.000	
10	  O9	12.706	51.919	89.360	O.2	1	RES1	0.000	
11	 C25	10.336	56.191	95.433	C.3	1	RES1	0.000	
12	 C26	11.607	55.671	94.769	C.2	1	RES1	0.000	
13	 C27	12.516	53.730	93.457	C.3	1	RES1	0.000	
14	 C28	12.129	53.854	91.974	C.2	1	RES1	0.000	
15	 C29	14.509	54.582	91.289	C.3	1	RES1	0.000	
16	 C30	14.871	55.467	90.115	C.3	1	RES1	0.000	
17	 C31	14.122	54.850	88.975	C.3	1	RES1	0.000	
18	 C32	12.808	54.314	89.621	C.3	1	RES1	0.000	
19	 C33	12.379	53.000	88.902	C.2	1	RES1	0.000	
20	 C34	10.960	52.059	87.141	C.3	1	RES1	0.000	
21	 C35	11.794	51.847	85.900	C.2	1	RES1	0.000	
22	 C36	12.648	52.839	85.397	C.2	1	RES1	0.000	
23	 C37	13.422	52.628	84.248	C.2	1	RES1	0.000	
24	 C38	13.406	51.399	83.593	C.2	1	RES1	0.000	
25	 C39	14.268	51.174	82.393	C.2	1	RES1	0.000	
26	 C40	13.963	50.535	81.210	C.2	1	RES1	0.000	
27	 C41	12.676	49.937	80.785	C.3	1	RES1	0.000	
28	 C42	16.068	51.060	80.842	C.2	1	RES1	0.000	
29	 C43	12.561	50.409	84.084	C.2	1	RES1	0.000	
30	 C44	11.749	50.595	85.216	C.2	1	RES1	0.000	
31	 C45	12.757	52.298	93.969	C.3	1	RES1	0.000	
32	 C46	13.660	51.471	93.015	C.3	1	RES1	0.000	
33	 C47	13.435	52.342	95.338	C.3	1	RES1	0.000	
34	 C48	11.411	51.550	94.134	C.3	1	RES1	0.000	
@<TRIPOS>BOND
1 1 25 ar
2 1 28 ar
3 3 11 1
4 11 12 1
5 2 12 1
6 5 12 2
7 2 13 1
8 13 14 1
9 13 31 1
10 4 14 1
11 7 14 2
12 4 15 1
13 15 16 1
14 9 16 1
15 16 17 1
16 17 18 1
17 4 18 1
18 18 19 1
19 6 19 1
20 10 19 2
21 6 20 1
22 20 21 1
23 21 22 ar
24 21 30 ar
25 22 23 ar
26 23 24 ar
27 24 25 1
28 24 29 ar
29 25 26 ar
30 8 26 ar
31 26 27 1
32 8 28 ar
33 29 30 ar
34 31 32 1
35 31 33 1
36 31 34 1
@<TRIPOS>SUBSTRUCTURE
1	RES1	1	GROUP	1 ****	RES
