# created with PyMOL 2.5.2
@<TRIPOS>MOLECULE
BRD7_5NVV_E3ligase
34 36 1                 
SMALL
USER_CHARGES
@<TRIPOS>ATOM
1	  S1	15.968	51.638	82.294	S.2	1	RES1	0.000	
2	  N5	11.425	54.453	94.281	N.pl3	1	RES1	0.000	
3	  N6	12.951	54.145	91.055	N.pl3	1	RES1	0.000	
4	  N7	11.501	53.170	87.842	N.pl3	1	RES1	0.000	
5	  O7	10.414	57.547	95.991	O.3	1	RES1	0.000	
6	  N8	15.040	50.485	80.220	N.2	1	RES1	0.000	
7	  O8	12.589	56.387	94.777	O.2	1	RES1	0.000	
8	  O9	10.853	53.663	91.748	O.2	1	RES1	0.000	
9	 O10	14.440	56.708	90.506	O.3	1	RES1	0.000	
10	 O11	12.772	51.928	89.283	O.2	1	RES1	0.000	
11	 C29	10.306	56.194	95.578	C.3	1	RES1	0.000	
12	 C30	11.572	55.704	94.843	C.2	1	RES1	0.000	
13	 C31	12.474	53.804	93.492	C.3	1	RES1	0.000	
14	 C32	12.008	53.858	92.038	C.2	1	RES1	0.000	
15	 C33	14.338	54.442	91.385	C.3	1	RES1	0.000	
16	 C34	14.823	55.324	90.263	C.3	1	RES1	0.000	
17	 C35	14.041	54.812	89.033	C.3	1	RES1	0.000	
18	 C36	12.720	54.322	89.601	C.3	1	RES1	0.000	
19	 C37	12.340	53.032	88.919	C.2	1	RES1	0.000	
20	 C38	11.021	52.064	87.049	C.3	1	RES1	0.000	
21	 C39	11.887	51.828	85.803	C.2	1	RES1	0.000	
22	 C40	11.822	50.601	85.166	C.2	1	RES1	0.000	
23	 C41	12.627	50.376	84.029	C.2	1	RES1	0.000	
24	 C42	13.513	51.377	83.553	C.2	1	RES1	0.000	
25	 C43	14.316	51.144	82.360	C.2	1	RES1	0.000	
26	 C44	14.006	50.536	81.140	C.2	1	RES1	0.000	
27	 C45	12.680	50.022	80.723	C.3	1	RES1	0.000	
28	 C46	16.108	51.020	80.749	C.2	1	RES1	0.000	
29	 C47	13.522	52.604	84.230	C.2	1	RES1	0.000	
30	 C48	12.740	52.826	85.352	C.2	1	RES1	0.000	
31	 C49	12.795	52.332	93.998	C.3	1	RES1	0.000	
32	 C50	13.737	51.635	93.007	C.3	1	RES1	0.000	
33	 C51	13.489	52.388	95.358	C.3	1	RES1	0.000	
34	 C52	11.515	51.494	94.159	C.3	1	RES1	0.000	
@<TRIPOS>BOND
1 1 25 ar
2 1 28 ar
3 9 16 1
4 10 19 2
5 5 11 1
6 11 12 1
7 2 12 1
8 7 12 2
9 2 13 1
10 13 14 1
11 13 31 1
12 3 14 1
13 8 14 2
14 3 15 1
15 15 16 1
16 16 17 1
17 17 18 1
18 3 18 1
19 18 19 1
20 4 19 1
21 4 20 1
22 20 21 1
23 21 22 ar
24 21 30 ar
25 22 23 ar
26 23 24 ar
27 24 25 1
28 24 29 ar
29 25 26 ar
30 6 26 ar
31 26 27 1
32 6 28 ar
33 29 30 ar
34 31 32 1
35 31 33 1
36 31 34 1
@<TRIPOS>SUBSTRUCTURE
1	RES1	1	GROUP	1 ****	RES
