# created with PyMOL 2.5.2
@<TRIPOS>MOLECULE
BRD9_5NVV_E3ligase
34 36 1                 
SMALL
USER_CHARGES
@<TRIPOS>ATOM
1	  S1	15.985	51.597	82.245	S.2	1	RES1	0.000	
2	  N5	11.405	54.442	94.328	N.pl3	1	RES1	0.000	
3	  N6	12.954	54.122	91.091	N.pl3	1	RES1	0.000	
4	  N7	11.601	53.228	87.764	N.pl3	1	RES1	0.000	
5	  O7	10.329	57.512	96.062	O.3	1	RES1	0.000	
6	  N8	15.047	50.420	80.134	N.2	1	RES1	0.000	
7	  O8	12.541	56.361	94.885	O.2	1	RES1	0.000	
8	  O9	10.821	53.720	91.783	O.2	1	RES1	0.000	
9	 O10	14.259	56.767	90.593	O.3	1	RES1	0.000	
10	 O11	12.818	51.951	89.253	O.2	1	RES1	0.000	
11	 C29	10.302	56.127	95.666	C.3	1	RES1	0.000	
12	 C30	11.520	55.701	94.904	C.2	1	RES1	0.000	
13	 C31	12.457	53.797	93.558	C.3	1	RES1	0.000	
14	 C32	12.011	53.855	92.068	C.2	1	RES1	0.000	
15	 C33	14.320	54.496	91.453	C.3	1	RES1	0.000	
16	 C34	14.749	55.454	90.354	C.3	1	RES1	0.000	
17	 C35	14.072	54.903	89.125	C.3	1	RES1	0.000	
18	 C36	12.748	54.318	89.642	C.3	1	RES1	0.000	
19	 C37	12.428	53.048	88.857	C.2	1	RES1	0.000	
20	 C38	11.108	52.103	86.984	C.3	1	RES1	0.000	
21	 C39	11.946	51.845	85.769	C.2	1	RES1	0.000	
22	 C40	11.892	50.637	85.096	C.2	1	RES1	0.000	
23	 C41	12.654	50.401	83.981	C.2	1	RES1	0.000	
24	 C42	13.527	51.349	83.458	C.2	1	RES1	0.000	
25	 C43	14.344	51.111	82.268	C.2	1	RES1	0.000	
26	 C44	14.010	50.490	81.058	C.2	1	RES1	0.000	
27	 C45	12.716	49.866	80.676	C.3	1	RES1	0.000	
28	 C46	16.127	50.976	80.643	C.2	1	RES1	0.000	
29	 C47	13.597	52.591	84.126	C.2	1	RES1	0.000	
30	 C48	12.822	52.835	85.265	C.2	1	RES1	0.000	
31	 C49	12.729	52.347	94.059	C.3	1	RES1	0.000	
32	 C50	13.791	51.665	93.176	C.3	1	RES1	0.000	
33	 C51	13.258	52.372	95.477	C.3	1	RES1	0.000	
34	 C52	11.463	51.464	94.033	C.3	1	RES1	0.000	
@<TRIPOS>BOND
1 1 25 ar
2 1 28 ar
3 9 16 1
4 10 19 2
5 5 11 1
6 11 12 1
7 2 12 1
8 7 12 2
9 2 13 1
10 13 14 1
11 13 31 1
12 3 14 1
13 8 14 2
14 3 15 1
15 15 16 1
16 16 17 1
17 17 18 1
18 3 18 1
19 18 19 1
20 4 19 1
21 4 20 1
22 20 21 1
23 21 22 ar
24 21 30 ar
25 22 23 ar
26 23 24 ar
27 24 25 1
28 24 29 ar
29 25 26 ar
30 6 26 ar
31 26 27 1
32 6 28 ar
33 29 30 ar
34 31 32 1
35 31 33 1
36 31 34 1
@<TRIPOS>SUBSTRUCTURE
1	RES1	1	GROUP	1 ****	RES
