# created with PyMOL 2.5.2
@<TRIPOS>MOLECULE
BRD7_5NVV_E3ligase
34 36 1                 
SMALL
USER_CHARGES
@<TRIPOS>ATOM
1	  S1	15.892	51.600	82.422	S.2	1	RES1	0.000	
2	  N5	11.435	54.423	94.214	N.pl3	1	RES1	0.000	
3	  N6	13.151	54.172	91.060	N.pl3	1	RES1	0.000	
4	  N7	11.540	53.183	87.872	N.pl3	1	RES1	0.000	
5	  N8	15.029	50.471	80.259	N.2	1	RES1	0.000	
6	  O8	10.477	57.463	96.086	O.3	1	RES1	0.000	
7	  O9	12.631	56.290	94.838	O.2	1	RES1	0.000	
8	 O10	10.996	53.656	91.628	O.2	1	RES1	0.000	
9	 O11	14.381	56.844	90.323	O.3	1	RES1	0.000	
10	 O12	12.746	51.917	89.345	O.2	1	RES1	0.000	
11	 C31	10.320	56.167	95.466	C.3	1	RES1	0.000	
12	 C32	11.580	55.652	94.813	C.2	1	RES1	0.000	
13	 C33	12.525	53.747	93.490	C.3	1	RES1	0.000	
14	 C34	12.152	53.869	91.969	C.2	1	RES1	0.000	
15	 C35	14.515	54.643	91.348	C.3	1	RES1	0.000	
16	 C36	14.848	55.504	90.141	C.3	1	RES1	0.000	
17	 C37	14.115	54.851	89.008	C.3	1	RES1	0.000	
18	 C38	12.830	54.307	89.652	C.3	1	RES1	0.000	
19	 C39	12.432	52.996	88.921	C.2	1	RES1	0.000	
20	 C40	11.002	52.104	87.084	C.3	1	RES1	0.000	
21	 C41	11.808	51.880	85.841	C.2	1	RES1	0.000	
22	 C42	11.718	50.661	85.159	C.2	1	RES1	0.000	
23	 C43	12.494	50.393	84.037	C.2	1	RES1	0.000	
24	 C44	13.386	51.366	83.566	C.2	1	RES1	0.000	
25	 C45	14.245	51.132	82.375	C.2	1	RES1	0.000	
26	 C46	13.949	50.523	81.169	C.2	1	RES1	0.000	
27	 C47	12.661	49.950	80.702	C.3	1	RES1	0.000	
28	 C48	16.078	50.992	80.831	C.2	1	RES1	0.000	
29	 C49	13.455	52.595	84.241	C.2	1	RES1	0.000	
30	 C50	12.675	52.842	85.358	C.2	1	RES1	0.000	
31	 C51	12.777	52.313	93.998	C.3	1	RES1	0.000	
32	 C52	13.444	52.343	95.392	C.3	1	RES1	0.000	
33	 C53	13.644	51.454	93.047	C.3	1	RES1	0.000	
34	 C54	11.421	51.552	94.152	C.3	1	RES1	0.000	
@<TRIPOS>BOND
1 1 25 ar
2 1 28 ar
3 8 14 2
4 9 16 1
5 10 19 2
6 6 11 1
7 11 12 1
8 2 12 1
9 7 12 2
10 2 13 1
11 13 14 1
12 13 31 1
13 3 14 1
14 3 15 1
15 15 16 1
16 16 17 1
17 17 18 1
18 3 18 1
19 18 19 1
20 4 19 1
21 4 20 1
22 20 21 1
23 21 22 ar
24 21 30 ar
25 22 23 ar
26 23 24 ar
27 24 25 1
28 24 29 ar
29 25 26 ar
30 5 26 ar
31 26 27 1
32 5 28 ar
33 29 30 ar
34 31 32 1
35 31 33 1
36 31 34 1
@<TRIPOS>SUBSTRUCTURE
1	RES1	1	GROUP	1 ****	RES
