# created with PyMOL 2.5.2
@<TRIPOS>MOLECULE
BRD9_5NVV_E3ligase
34 36 1                 
SMALL
USER_CHARGES
@<TRIPOS>ATOM
1	  S1	15.935	51.657	82.297	S.2	1	RES1	0.000	
2	  N5	11.373	54.446	94.204	N.pl3	1	RES1	0.000	
3	  N6	13.124	54.141	91.040	N.pl3	1	RES1	0.000	
4	  N7	11.565	53.191	87.898	N.pl3	1	RES1	0.000	
5	  N8	14.989	50.432	80.251	N.2	1	RES1	0.000	
6	  O8	10.381	57.403	96.193	O.3	1	RES1	0.000	
7	  O9	12.558	56.294	94.856	O.2	1	RES1	0.000	
8	 O10	10.932	53.695	91.565	O.2	1	RES1	0.000	
9	 O11	14.375	56.785	90.465	O.3	1	RES1	0.000	
10	 O12	12.852	51.909	89.312	O.2	1	RES1	0.000	
11	 C31	10.219	56.215	95.401	C.3	1	RES1	0.000	
12	 C32	11.503	55.678	94.820	C.2	1	RES1	0.000	
13	 C33	12.436	53.773	93.438	C.3	1	RES1	0.000	
14	 C34	12.079	53.867	91.954	C.2	1	RES1	0.000	
15	 C35	14.462	54.525	91.385	C.3	1	RES1	0.000	
16	 C36	14.867	55.458	90.238	C.3	1	RES1	0.000	
17	 C37	14.151	54.881	89.055	C.3	1	RES1	0.000	
18	 C38	12.847	54.330	89.627	C.3	1	RES1	0.000	
19	 C39	12.437	53.011	88.952	C.2	1	RES1	0.000	
20	 C40	11.060	52.069	87.100	C.3	1	RES1	0.000	
21	 C41	11.896	51.831	85.871	C.2	1	RES1	0.000	
22	 C42	12.754	52.838	85.372	C.2	1	RES1	0.000	
23	 C43	13.539	52.596	84.252	C.2	1	RES1	0.000	
24	 C44	13.475	51.380	83.570	C.2	1	RES1	0.000	
25	 C45	14.295	51.137	82.387	C.2	1	RES1	0.000	
26	 C46	13.952	50.508	81.165	C.2	1	RES1	0.000	
27	 C47	12.651	49.959	80.759	C.3	1	RES1	0.000	
28	 C48	16.071	50.999	80.725	C.2	1	RES1	0.000	
29	 C49	12.602	50.385	84.060	C.2	1	RES1	0.000	
30	 C50	11.811	50.625	85.185	C.2	1	RES1	0.000	
31	 C51	12.686	52.332	93.933	C.3	1	RES1	0.000	
32	 C52	13.279	52.375	95.359	C.3	1	RES1	0.000	
33	 C53	13.749	51.637	93.056	C.3	1	RES1	0.000	
34	 C54	11.408	51.462	94.001	C.3	1	RES1	0.000	
@<TRIPOS>BOND
1 1 25 ar
2 1 28 ar
3 8 14 2
4 9 16 1
5 10 19 2
6 6 11 1
7 11 12 1
8 2 12 1
9 7 12 2
10 2 13 1
11 13 14 1
12 13 31 1
13 3 14 1
14 3 15 1
15 15 16 1
16 16 17 1
17 17 18 1
18 3 18 1
19 18 19 1
20 4 19 1
21 4 20 1
22 20 21 1
23 21 22 ar
24 21 30 ar
25 22 23 ar
26 23 24 ar
27 24 25 1
28 24 29 ar
29 25 26 ar
30 5 26 ar
31 26 27 1
32 5 28 ar
33 29 30 ar
34 31 32 1
35 31 33 1
36 31 34 1
@<TRIPOS>SUBSTRUCTURE
1	RES1	1	GROUP	1 ****	RES
