# created with PyMOL 2.5.2
@<TRIPOS>MOLECULE
BRD7_5NVV_E3ligase
34 36 1                 
SMALL
USER_CHARGES
@<TRIPOS>ATOM
1	  S1	16.003	51.400	82.751	S.2	1	RES1	0.000	
2	  N5	10.911	54.172	93.946	N.3	1	RES1	0.000	
3	  O5	10.523	57.129	95.623	O.3	1	RES1	0.000	
4	  N6	12.379	54.293	90.693	N.pl3	1	RES1	0.000	
5	  O6	12.753	55.239	94.812	O.3	1	RES1	0.000	
6	  N7	11.825	52.818	88.430	N.pl3	1	RES1	0.000	
7	  O7	10.197	54.458	91.294	O.2	1	RES1	0.000	
8	  N8	15.023	50.720	80.476	N.2	1	RES1	0.000	
9	  O8	15.101	55.407	91.297	O.3	1	RES1	0.000	
10	  O9	12.667	50.989	89.527	O.2	1	RES1	0.000	
11	 C28	10.608	55.704	95.781	C.3	1	RES1	0.000	
12	 C29	11.562	55.041	94.801	C.3	1	RES1	0.000	
13	 C30	11.628	53.379	92.916	C.3	1	RES1	0.000	
14	 C31	11.301	54.081	91.564	C.2	1	RES1	0.000	
15	 C32	12.917	55.564	90.247	C.3	1	RES1	0.000	
16	 C33	14.416	55.303	90.052	C.3	1	RES1	0.000	
17	 C34	14.448	53.862	89.612	C.3	1	RES1	0.000	
18	 C35	13.289	53.205	90.367	C.3	1	RES1	0.000	
19	 C36	12.559	52.199	89.423	C.2	1	RES1	0.000	
20	 C37	11.078	52.075	87.416	C.3	1	RES1	0.000	
21	 C38	11.906	51.881	86.151	C.2	1	RES1	0.000	
22	 C39	12.964	52.717	85.877	C.2	1	RES1	0.000	
23	 C40	13.695	52.533	84.734	C.2	1	RES1	0.000	
24	 C41	13.440	51.501	83.825	C.2	1	RES1	0.000	
25	 C42	14.283	51.267	82.636	C.2	1	RES1	0.000	
26	 C43	13.930	50.908	81.329	C.2	1	RES1	0.000	
27	 C44	12.574	50.703	80.800	C.3	1	RES1	0.000	
28	 C45	16.123	50.972	81.091	C.2	1	RES1	0.000	
29	 C46	12.388	50.623	84.124	C.2	1	RES1	0.000	
30	 C47	11.598	50.806	85.275	C.2	1	RES1	0.000	
31	 C48	13.144	53.278	93.180	C.3	1	RES1	0.000	
32	 C49	13.773	52.217	92.228	C.3	1	RES1	0.000	
33	 C50	13.901	54.612	92.942	C.3	1	RES1	0.000	
34	 C51	13.447	52.813	94.610	C.3	1	RES1	0.000	
@<TRIPOS>BOND
1 1 25 ar
2 1 28 ar
3 3 11 1
4 11 12 1
5 2 12 1
6 5 12 1
7 2 13 1
8 13 14 1
9 13 31 1
10 4 14 1
11 7 14 2
12 4 15 1
13 15 16 1
14 9 16 1
15 16 17 1
16 17 18 1
17 4 18 1
18 18 19 1
19 6 19 1
20 10 19 2
21 6 20 1
22 20 21 1
23 21 22 ar
24 21 30 ar
25 22 23 ar
26 23 24 ar
27 24 25 1
28 24 29 ar
29 25 26 ar
30 8 26 ar
31 26 27 1
32 8 28 ar
33 29 30 ar
34 31 32 1
35 31 33 1
36 31 34 1
@<TRIPOS>SUBSTRUCTURE
1	RES1	1	GROUP	1 ****	RES
