# created with PyMOL 2.5.2
@<TRIPOS>MOLECULE
BRD7_5NVV_E3ligase
34 36 1                 
SMALL
USER_CHARGES
@<TRIPOS>ATOM
1	  S1	15.927	51.674	82.375	S.2	1	RES1	0.000	
2	  N5	11.386	54.454	94.181	N.pl3	1	RES1	0.000	
3	  N6	13.084	54.157	91.034	N.pl3	1	RES1	0.000	
4	  O6	10.545	57.436	96.157	O.3	1	RES1	0.000	
5	  N7	11.526	53.124	87.887	N.pl3	1	RES1	0.000	
6	  O7	12.618	56.337	94.757	O.2	1	RES1	0.000	
7	  N8	14.998	50.545	80.224	N.2	1	RES1	0.000	
8	  O8	10.908	53.647	91.597	O.2	1	RES1	0.000	
9	  O9	14.438	56.801	90.535	O.3	1	RES1	0.000	
10	 O10	12.848	51.955	89.357	O.2	1	RES1	0.000	
11	 C27	10.307	56.227	95.481	C.3	1	RES1	0.000	
12	 C28	11.552	55.718	94.768	C.2	1	RES1	0.000	
13	 C29	12.447	53.789	93.466	C.3	1	RES1	0.000	
14	 C30	12.041	53.886	91.977	C.2	1	RES1	0.000	
15	 C31	14.451	54.498	91.320	C.3	1	RES1	0.000	
16	 C32	14.824	55.476	90.211	C.3	1	RES1	0.000	
17	 C33	14.041	54.965	89.017	C.3	1	RES1	0.000	
18	 C34	12.771	54.364	89.611	C.3	1	RES1	0.000	
19	 C35	12.443	52.999	88.929	C.2	1	RES1	0.000	
20	 C36	11.082	51.980	87.134	C.3	1	RES1	0.000	
21	 C37	11.893	51.768	85.877	C.2	1	RES1	0.000	
22	 C38	11.874	50.532	85.218	C.2	1	RES1	0.000	
23	 C39	12.638	50.355	84.083	C.2	1	RES1	0.000	
24	 C40	13.469	51.352	83.599	C.2	1	RES1	0.000	
25	 C41	14.299	51.165	82.368	C.2	1	RES1	0.000	
26	 C42	13.987	50.563	81.142	C.2	1	RES1	0.000	
27	 C43	12.682	49.957	80.730	C.3	1	RES1	0.000	
28	 C44	16.070	51.095	80.732	C.2	1	RES1	0.000	
29	 C45	13.511	52.574	84.272	C.2	1	RES1	0.000	
30	 C46	12.724	52.765	85.395	C.2	1	RES1	0.000	
31	 C47	12.678	52.309	93.958	C.3	1	RES1	0.000	
32	 C48	13.234	52.334	95.389	C.3	1	RES1	0.000	
33	 C49	13.681	51.591	93.058	C.3	1	RES1	0.000	
34	 C50	11.374	51.465	93.962	C.3	1	RES1	0.000	
@<TRIPOS>BOND
1 1 25 ar
2 1 28 ar
3 10 19 2
4 4 11 1
5 11 12 1
6 2 12 1
7 6 12 2
8 2 13 1
9 13 14 1
10 13 31 1
11 3 14 1
12 8 14 2
13 3 15 1
14 15 16 1
15 9 16 1
16 16 17 1
17 17 18 1
18 3 18 1
19 18 19 1
20 5 19 1
21 5 20 1
22 20 21 1
23 21 22 ar
24 21 30 ar
25 22 23 ar
26 23 24 ar
27 24 25 1
28 24 29 ar
29 25 26 ar
30 7 26 ar
31 26 27 1
32 7 28 ar
33 29 30 ar
34 31 32 1
35 31 33 1
36 31 34 1
@<TRIPOS>SUBSTRUCTURE
1	RES1	1	GROUP	1 ****	RES
