# created with PyMOL 2.5.2
@<TRIPOS>MOLECULE
BRD9_5NVV_E3ligase
34 36 1                 
SMALL
USER_CHARGES
@<TRIPOS>ATOM
1	  S1	15.990	51.684	82.361	S.2	1	RES1	0.000	
2	  N5	11.454	54.471	94.293	N.pl3	1	RES1	0.000	
3	  N6	12.905	54.118	91.031	N.pl3	1	RES1	0.000	
4	  O6	10.530	57.590	96.022	O.3	1	RES1	0.000	
5	  N7	11.479	53.134	87.826	N.pl3	1	RES1	0.000	
6	  O7	12.644	56.411	94.754	O.2	1	RES1	0.000	
7	  N8	15.060	50.568	80.236	N.2	1	RES1	0.000	
8	  O8	10.792	53.695	91.779	O.2	1	RES1	0.000	
9	  O9	14.386	56.683	90.476	O.3	1	RES1	0.000	
10	 O10	12.749	51.906	89.274	O.2	1	RES1	0.000	
11	 C27	10.396	56.238	95.569	C.3	1	RES1	0.000	
12	 C28	11.637	55.751	94.833	C.2	1	RES1	0.000	
13	 C29	12.487	53.802	93.479	C.3	1	RES1	0.000	
14	 C30	11.961	53.850	92.031	C.2	1	RES1	0.000	
15	 C31	14.279	54.404	91.375	C.3	1	RES1	0.000	
16	 C32	14.769	55.304	90.259	C.3	1	RES1	0.000	
17	 C33	14.044	54.780	89.040	C.3	1	RES1	0.000	
18	 C34	12.679	54.303	89.594	C.3	1	RES1	0.000	
19	 C35	12.319	52.998	88.899	C.2	1	RES1	0.000	
20	 C36	11.015	52.025	87.055	C.3	1	RES1	0.000	
21	 C37	11.868	51.801	85.826	C.2	1	RES1	0.000	
22	 C38	11.845	50.579	85.150	C.2	1	RES1	0.000	
23	 C39	12.634	50.375	84.033	C.2	1	RES1	0.000	
24	 C40	13.501	51.365	83.565	C.2	1	RES1	0.000	
25	 C41	14.336	51.161	82.351	C.2	1	RES1	0.000	
26	 C42	14.037	50.583	81.130	C.2	1	RES1	0.000	
27	 C43	12.737	49.944	80.727	C.3	1	RES1	0.000	
28	 C44	16.132	51.116	80.734	C.2	1	RES1	0.000	
29	 C45	13.512	52.593	84.215	C.2	1	RES1	0.000	
30	 C46	12.735	52.792	85.346	C.2	1	RES1	0.000	
31	 C47	12.768	52.340	93.998	C.3	1	RES1	0.000	
32	 C48	13.508	52.388	95.366	C.3	1	RES1	0.000	
33	 C49	13.686	51.608	92.983	C.3	1	RES1	0.000	
34	 C50	11.478	51.493	94.188	C.3	1	RES1	0.000	
@<TRIPOS>BOND
1 1 25 ar
2 1 28 ar
3 10 19 2
4 4 11 1
5 11 12 1
6 2 12 1
7 6 12 2
8 2 13 1
9 13 14 1
10 13 31 1
11 3 14 1
12 8 14 2
13 3 15 1
14 15 16 1
15 9 16 1
16 16 17 1
17 17 18 1
18 3 18 1
19 18 19 1
20 5 19 1
21 5 20 1
22 20 21 1
23 21 22 ar
24 21 30 ar
25 22 23 ar
26 23 24 ar
27 24 25 1
28 24 29 ar
29 25 26 ar
30 7 26 ar
31 26 27 1
32 7 28 ar
33 29 30 ar
34 31 32 1
35 31 33 1
36 31 34 1
@<TRIPOS>SUBSTRUCTURE
1	RES1	1	GROUP	1 ****	RES
