# created with PyMOL 2.5.2
@<TRIPOS>MOLECULE
BRD7_5NVV_E3ligase
34 36 1                 
SMALL
USER_CHARGES
@<TRIPOS>ATOM
1	  S1	15.975	52.005	82.301	S.2	1	RES1	0.000	
2	  N5	11.432	54.555	94.408	N.pl3	1	RES1	0.000	
3	  N6	12.651	54.143	91.059	N.pl3	1	RES1	0.000	
4	  N7	11.348	52.914	87.840	N.pl3	1	RES1	0.000	
5	  O7	10.274	57.698	95.893	O.3	1	RES1	0.000	
6	  N8	15.160	50.786	80.178	N.2	1	RES1	0.000	
7	  O8	12.576	56.533	94.789	O.2	1	RES1	0.000	
8	  O9	10.594	53.760	91.979	O.2	1	RES1	0.000	
9	 O10	15.728	55.648	89.940	O.3	1	RES1	0.000	
10	 O11	12.815	51.907	89.271	O.2	1	RES1	0.000	
11	 C27	10.430	56.260	95.844	C.3	1	RES1	0.000	
12	 C28	11.571	55.835	94.958	C.2	1	RES1	0.000	
13	 C29	12.392	53.896	93.566	C.3	1	RES1	0.000	
14	 C30	11.794	53.906	92.133	C.2	1	RES1	0.000	
15	 C31	14.040	54.464	91.305	C.3	1	RES1	0.000	
16	 C32	14.688	54.641	89.926	C.3	1	RES1	0.000	
17	 C33	13.509	55.073	89.066	C.3	1	RES1	0.000	
18	 C34	12.357	54.249	89.643	C.3	1	RES1	0.000	
19	 C35	12.228	52.904	88.889	C.2	1	RES1	0.000	
20	 C36	11.055	51.699	87.064	C.3	1	RES1	0.000	
21	 C37	11.955	51.596	85.874	C.2	1	RES1	0.000	
22	 C38	12.086	50.385	85.174	C.2	1	RES1	0.000	
23	 C39	12.892	50.296	84.025	C.2	1	RES1	0.000	
24	 C40	13.591	51.425	83.533	C.2	1	RES1	0.000	
25	 C41	14.389	51.321	82.327	C.2	1	RES1	0.000	
26	 C42	14.139	50.718	81.078	C.2	1	RES1	0.000	
27	 C43	12.874	50.055	80.679	C.3	1	RES1	0.000	
28	 C44	16.171	51.436	80.696	C.2	1	RES1	0.000	
29	 C45	13.419	52.623	84.224	C.2	1	RES1	0.000	
30	 C46	12.625	52.726	85.366	C.2	1	RES1	0.000	
31	 C47	12.767	52.474	94.050	C.3	1	RES1	0.000	
32	 C48	13.457	52.579	95.449	C.3	1	RES1	0.000	
33	 C49	13.807	51.822	93.101	C.3	1	RES1	0.000	
34	 C50	11.563	51.536	94.199	C.3	1	RES1	0.000	
@<TRIPOS>BOND
1 1 25 ar
2 1 28 ar
3 9 16 1
4 10 19 2
5 5 11 1
6 11 12 1
7 2 12 1
8 7 12 2
9 2 13 1
10 13 14 1
11 13 31 1
12 3 14 1
13 8 14 2
14 3 15 1
15 15 16 1
16 16 17 1
17 17 18 1
18 3 18 1
19 18 19 1
20 4 19 1
21 4 20 1
22 20 21 1
23 21 22 ar
24 21 30 ar
25 22 23 ar
26 23 24 ar
27 24 25 1
28 24 29 ar
29 25 26 ar
30 6 26 ar
31 26 27 1
32 6 28 ar
33 29 30 ar
34 31 32 1
35 31 33 1
36 31 34 1
@<TRIPOS>SUBSTRUCTURE
1	RES1	1	GROUP	1 ****	RES
