# created with PyMOL 2.5.2
@<TRIPOS>MOLECULE
CDK6_6H0G_E3ligase
20 22 1                 
SMALL
USER_CHARGES
@<TRIPOS>ATOM
1	  N6	2.085	54.383	-85.615	N.pl3	1	RES1	0.000	
2	  O6	2.776	53.748	-82.788	O.2	1	RES1	0.000	
3	  N7	1.721	51.715	-82.124	N.2	1	RES1	0.000	
4	  O7	3.725	49.733	-77.410	O.2	1	RES1	0.000	
5	  N8	2.022	50.051	-78.885	N.pl3	1	RES1	0.000	
6	  O8	0.230	50.336	-80.224	O.2	1	RES1	0.000	
7	  O9	0.318	49.841	-82.285	O.2	1	RES1	0.000	
8	 C25	1.319	53.215	-85.407	C.2	1	RES1	0.000	
9	 C26	0.571	52.696	-86.468	C.2	1	RES1	0.000	
10	 C27	-0.176	51.492	-86.301	C.2	1	RES1	0.000	
11	 C28	-0.144	50.815	-85.104	C.2	1	RES1	0.000	
12	 C29	0.639	51.345	-84.071	C.2	1	RES1	0.000	
13	 C30	1.334	52.491	-84.243	C.2	1	RES1	0.000	
14	 C31	2.046	52.746	-82.981	C.2	1	RES1	0.000	
15	 C32	2.226	51.639	-80.746	C.3	1	RES1	0.000	
16	 C33	3.729	51.327	-80.645	C.3	1	RES1	0.000	
17	 C34	4.133	51.278	-79.195	C.3	1	RES1	0.000	
18	 C35	3.310	50.295	-78.401	C.2	1	RES1	0.000	
19	 C36	1.396	50.618	-79.947	C.2	1	RES1	0.000	
20	 C37	0.864	50.830	-82.727	C.2	1	RES1	0.000	
@<TRIPOS>BOND
1 1 8 1
2 8 9 ar
3 8 13 ar
4 9 10 ar
5 10 11 ar
6 11 12 ar
7 12 13 ar
8 12 20 ar
9 13 14 ar
10 2 14 2
11 3 14 ar
12 3 15 1
13 15 16 1
14 15 19 1
15 16 17 1
16 17 18 1
17 4 18 2
18 5 18 1
19 5 19 1
20 6 19 2
21 3 20 ar
22 7 20 2
@<TRIPOS>SUBSTRUCTURE
1	RES1	1	GROUP	1 ****	RES
