# created with PyMOL 2.5.2
@<TRIPOS>MOLECULE
BRD9_5NVV_E3ligase
34 36 1                 
SMALL
USER_CHARGES
@<TRIPOS>ATOM
1	  S1	15.925	51.727	82.457	S.2	1	RES1	0.000	
2	  N5	11.433	54.496	94.240	N.pl3	1	RES1	0.000	
3	  N6	13.069	54.067	91.056	N.pl3	1	RES1	0.000	
4	  N7	11.464	53.067	87.898	N.pl3	1	RES1	0.000	
5	  O7	10.572	57.591	96.033	O.3	1	RES1	0.000	
6	  N8	15.154	50.548	80.284	N.2	1	RES1	0.000	
7	  O8	12.649	56.370	94.728	O.2	1	RES1	0.000	
8	  O9	10.896	53.641	91.671	O.2	1	RES1	0.000	
9	 O10	14.328	56.750	90.477	O.3	1	RES1	0.000	
10	 O11	12.913	51.847	89.162	O.2	1	RES1	0.000	
11	 C27	10.363	56.305	95.474	C.3	1	RES1	0.000	
12	 C28	11.609	55.746	94.791	C.2	1	RES1	0.000	
13	 C29	12.484	53.789	93.508	C.3	1	RES1	0.000	
14	 C30	12.051	53.845	92.037	C.2	1	RES1	0.000	
15	 C31	14.408	54.471	91.344	C.3	1	RES1	0.000	
16	 C32	14.788	55.412	90.230	C.3	1	RES1	0.000	
17	 C33	14.032	54.827	89.017	C.3	1	RES1	0.000	
18	 C34	12.743	54.217	89.627	C.3	1	RES1	0.000	
19	 C35	12.364	52.917	88.923	C.2	1	RES1	0.000	
20	 C36	10.995	51.973	87.098	C.3	1	RES1	0.000	
21	 C37	11.805	51.794	85.829	C.2	1	RES1	0.000	
22	 C38	12.643	52.800	85.340	C.2	1	RES1	0.000	
23	 C39	13.417	52.601	84.215	C.2	1	RES1	0.000	
24	 C40	13.403	51.385	83.507	C.2	1	RES1	0.000	
25	 C41	14.277	51.185	82.356	C.2	1	RES1	0.000	
26	 C42	14.063	50.600	81.139	C.2	1	RES1	0.000	
27	 C43	12.796	50.044	80.609	C.3	1	RES1	0.000	
28	 C44	16.178	51.142	80.852	C.2	1	RES1	0.000	
29	 C45	12.576	50.355	84.019	C.2	1	RES1	0.000	
30	 C46	11.797	50.544	85.160	C.2	1	RES1	0.000	
31	 C47	12.702	52.325	94.063	C.3	1	RES1	0.000	
32	 C48	13.347	52.391	95.447	C.3	1	RES1	0.000	
33	 C49	13.689	51.584	93.107	C.3	1	RES1	0.000	
34	 C50	11.420	51.508	94.128	C.3	1	RES1	0.000	
@<TRIPOS>BOND
1 1 25 ar
2 1 28 ar
3 9 16 1
4 10 19 2
5 5 11 1
6 11 12 1
7 2 12 1
8 7 12 2
9 2 13 1
10 13 14 1
11 13 31 1
12 3 14 1
13 8 14 2
14 3 15 1
15 15 16 1
16 16 17 1
17 17 18 1
18 3 18 1
19 18 19 1
20 4 19 1
21 4 20 1
22 20 21 1
23 21 22 ar
24 21 30 ar
25 22 23 ar
26 23 24 ar
27 24 25 1
28 24 29 ar
29 25 26 ar
30 6 26 ar
31 26 27 1
32 6 28 ar
33 29 30 ar
34 31 32 1
35 31 33 1
36 31 34 1
@<TRIPOS>SUBSTRUCTURE
1	RES1	1	GROUP	1 ****	RES
