# created with PyMOL 2.5.2
@<TRIPOS>MOLECULE
BRD7_5NVX_E3ligase
36 39 1                 
SMALL
USER_CHARGES
@<TRIPOS>ATOM
1	  S1	15.863	51.853	82.492	S.2	1	RES1	0.000	
2	  N5	15.095	50.613	80.378	N.2	1	RES1	0.000	
3	  N6	11.423	53.175	87.937	N.pl3	1	RES1	0.000	
4	  N7	12.921	54.197	91.096	N.pl3	1	RES1	0.000	
5	  O7	12.779	51.945	89.304	O.2	1	RES1	0.000	
6	  N8	11.396	54.560	94.318	N.pl3	1	RES1	0.000	
7	  O8	14.527	56.673	90.570	O.3	1	RES1	0.000	
8	  O9	10.804	53.738	91.828	O.2	1	RES1	0.000	
9	 O10	12.482	56.558	94.744	O.2	1	RES1	0.000	
10	 C27	12.634	52.843	85.465	C.2	1	RES1	0.000	
11	 C28	13.442	52.651	84.327	C.2	1	RES1	0.000	
12	 C29	13.359	51.434	83.645	C.2	1	RES1	0.000	
13	 C30	14.251	51.232	82.458	C.2	1	RES1	0.000	
14	 C31	14.012	50.643	81.228	C.2	1	RES1	0.000	
15	 C32	12.751	50.011	80.744	C.3	1	RES1	0.000	
16	 C33	16.112	51.226	80.933	C.2	1	RES1	0.000	
17	 C34	12.512	50.429	84.103	C.2	1	RES1	0.000	
18	 C35	11.737	50.641	85.219	C.2	1	RES1	0.000	
19	 C36	11.758	51.848	85.931	C.2	1	RES1	0.000	
20	 C37	10.922	52.066	87.167	C.3	1	RES1	0.000	
21	 C38	12.307	53.033	88.985	C.2	1	RES1	0.000	
22	 C39	12.687	54.365	89.670	C.3	1	RES1	0.000	
23	 C40	14.048	54.837	89.077	C.3	1	RES1	0.000	
24	 C41	14.806	55.290	90.273	C.3	1	RES1	0.000	
25	 C42	14.304	54.414	91.417	C.3	1	RES1	0.000	
26	 C43	11.983	53.942	92.085	C.2	1	RES1	0.000	
27	 C44	12.463	53.904	93.570	C.3	1	RES1	0.000	
28	 C45	11.503	55.840	94.849	C.2	1	RES1	0.000	
29	 C46	10.284	56.327	95.538	C.3	1	RES1	0.000	
30	 C47	10.379	57.240	96.728	C.3	1	RES1	0.000	
31	 C48	9.901	55.831	96.921	C.3	1	RES1	0.000	
32	 C49	12.819	52.494	94.112	C.3	1	RES1	0.000	
33	 C50	11.611	51.539	94.121	C.3	1	RES1	0.000	
34	 C51	13.388	52.612	95.514	C.3	1	RES1	0.000	
35	 C52	13.906	51.862	93.183	C.3	1	RES1	0.000	
36	  F1	9.167	56.599	94.710	 F	1	RES1	0.000	
@<TRIPOS>BOND
1 1 13 ar
2 1 16 ar
3 9 28 2
4 10 11 ar
5 10 19 ar
6 11 12 ar
7 12 13 1
8 12 17 ar
9 13 14 ar
10 2 14 ar
11 14 15 1
12 2 16 ar
13 17 18 ar
14 18 19 ar
15 19 20 1
16 3 20 1
17 3 21 1
18 5 21 2
19 21 22 1
20 4 22 1
21 22 23 1
22 23 24 1
23 7 24 1
24 24 25 1
25 4 25 1
26 4 26 1
27 8 26 2
28 26 27 1
29 6 27 1
30 27 32 1
31 6 28 1
32 28 29 1
33 29 30 1
34 29 31 1
35 30 31 1
36 32 33 1
37 32 34 1
38 32 35 1
39 29 36 1
@<TRIPOS>SUBSTRUCTURE
1	RES1	1	GROUP	1 ****	RES
