# created with PyMOL 2.5.2
@<TRIPOS>MOLECULE
BRD9_5NVX_E3ligase
36 39 1                 
SMALL
USER_CHARGES
@<TRIPOS>ATOM
1	  S1	15.777	52.238	82.531	S.2	1	RES1	0.000	
2	  N5	15.075	50.933	80.402	N.2	1	RES1	0.000	
3	  N6	11.258	52.919	88.037	N.pl3	1	RES1	0.000	
4	  N7	12.807	54.240	91.073	N.pl3	1	RES1	0.000	
5	  O7	12.930	52.036	89.321	O.2	1	RES1	0.000	
6	  N8	11.382	54.564	94.354	N.pl3	1	RES1	0.000	
7	  O8	15.736	55.785	89.724	O.3	1	RES1	0.000	
8	  O9	10.689	53.824	91.849	O.2	1	RES1	0.000	
9	 O10	12.586	56.474	94.874	O.2	1	RES1	0.000	
10	 C27	12.471	52.740	85.618	C.2	1	RES1	0.000	
11	 C28	13.242	52.664	84.442	C.2	1	RES1	0.000	
12	 C29	13.396	51.485	83.729	C.2	1	RES1	0.000	
13	 C30	14.246	51.414	82.558	C.2	1	RES1	0.000	
14	 C31	14.034	50.803	81.305	C.2	1	RES1	0.000	
15	 C32	12.868	50.034	80.853	C.3	1	RES1	0.000	
16	 C33	16.064	51.657	80.936	C.2	1	RES1	0.000	
17	 C34	12.724	50.346	84.209	C.2	1	RES1	0.000	
18	 C35	11.931	50.404	85.362	C.2	1	RES1	0.000	
19	 C36	11.794	51.617	86.074	C.2	1	RES1	0.000	
20	 C37	10.957	51.709	87.307	C.3	1	RES1	0.000	
21	 C38	12.245	52.985	89.028	C.2	1	RES1	0.000	
22	 C39	12.389	54.372	89.668	C.3	1	RES1	0.000	
23	 C40	13.508	55.181	89.035	C.3	1	RES1	0.000	
24	 C41	14.736	54.777	89.805	C.3	1	RES1	0.000	
25	 C42	14.205	54.576	91.215	C.3	1	RES1	0.000	
26	 C43	11.864	53.985	92.090	C.2	1	RES1	0.000	
27	 C44	12.405	53.903	93.531	C.3	1	RES1	0.000	
28	 C45	11.563	55.808	94.928	C.2	1	RES1	0.000	
29	 C46	10.366	56.302	95.694	C.3	1	RES1	0.000	
30	 C47	10.040	57.771	95.739	C.3	1	RES1	0.000	
31	 C48	10.530	57.067	96.977	C.3	1	RES1	0.000	
32	 C49	12.712	52.452	94.020	C.3	1	RES1	0.000	
33	 C50	11.443	51.636	94.317	C.3	1	RES1	0.000	
34	 C51	13.526	52.566	95.355	C.3	1	RES1	0.000	
35	 C52	13.573	51.695	93.002	C.3	1	RES1	0.000	
36	  F1	9.256	55.484	95.654	 F	1	RES1	0.000	
@<TRIPOS>BOND
1 1 13 ar
2 1 16 ar
3 9 28 2
4 10 11 ar
5 10 19 ar
6 11 12 ar
7 12 13 1
8 12 17 ar
9 13 14 ar
10 2 14 ar
11 14 15 1
12 2 16 ar
13 17 18 ar
14 18 19 ar
15 19 20 1
16 3 20 1
17 3 21 1
18 5 21 2
19 21 22 1
20 4 22 1
21 22 23 1
22 23 24 1
23 7 24 1
24 24 25 1
25 4 25 1
26 4 26 1
27 8 26 2
28 26 27 1
29 6 27 1
30 27 32 1
31 6 28 1
32 28 29 1
33 29 30 1
34 29 31 1
35 30 31 1
36 32 33 1
37 32 34 1
38 32 35 1
39 29 36 1
@<TRIPOS>SUBSTRUCTURE
1	RES1	1	GROUP	1 ****	RES
