# created with PyMOL 2.5.2
@<TRIPOS>MOLECULE
BRD7_5LLI_E3ligase
37 40 1                 
SMALL
USER_CHARGES
@<TRIPOS>ATOM
1	  S1	15.996	52.474	83.217	S.2	1	RES1	0.000	
2	  N5	15.096	51.343	81.119	N.2	1	RES1	0.000	
3	  N6	11.693	53.877	88.840	N.pl3	1	RES1	0.000	
4	  N7	13.278	54.972	91.874	N.pl3	1	RES1	0.000	
5	  O7	13.128	52.727	90.199	O.2	1	RES1	0.000	
6	  N8	11.456	55.259	95.005	N.pl3	1	RES1	0.000	
7	  O8	14.693	57.596	91.345	O.3	1	RES1	0.000	
8	  N9	8.226	55.516	96.232	N.1	1	RES1	0.000	
9	  O9	11.095	54.617	92.393	O.2	1	RES1	0.000	
10	 O10	12.695	56.992	95.931	O.2	1	RES1	0.000	
11	 C27	12.805	53.555	86.299	C.2	1	RES1	0.000	
12	 C28	13.549	53.390	85.137	C.2	1	RES1	0.000	
13	 C29	13.539	52.155	84.445	C.2	1	RES1	0.000	
14	 C30	14.349	51.962	83.235	C.2	1	RES1	0.000	
15	 C31	14.050	51.365	82.014	C.2	1	RES1	0.000	
16	 C32	12.752	50.783	81.560	C.3	1	RES1	0.000	
17	 C33	16.183	51.864	81.634	C.2	1	RES1	0.000	
18	 C34	12.792	51.131	84.999	C.2	1	RES1	0.000	
19	 C35	12.060	51.292	86.163	C.2	1	RES1	0.000	
20	 C36	12.050	52.504	86.842	C.2	1	RES1	0.000	
21	 C37	11.233	52.713	88.096	C.3	1	RES1	0.000	
22	 C38	12.653	53.785	89.823	C.2	1	RES1	0.000	
23	 C39	13.035	55.152	90.448	C.3	1	RES1	0.000	
24	 C40	14.326	55.682	89.865	C.3	1	RES1	0.000	
25	 C41	15.097	56.232	91.047	C.3	1	RES1	0.000	
26	 C42	14.659	55.312	92.199	C.3	1	RES1	0.000	
27	 C43	12.254	54.763	92.767	C.2	1	RES1	0.000	
28	 C44	12.593	54.685	94.295	C.3	1	RES1	0.000	
29	 C45	11.605	56.398	95.771	C.2	1	RES1	0.000	
30	 C46	10.377	56.934	96.431	C.3	1	RES1	0.000	
31	 C47	9.163	56.169	96.349	C.1	1	RES1	0.000	
32	 C48	10.532	57.752	97.703	C.3	1	RES1	0.000	
33	 C49	10.177	58.438	96.427	C.3	1	RES1	0.000	
34	 C50	12.881	53.201	94.732	C.3	1	RES1	0.000	
35	 C51	11.579	52.384	94.736	C.3	1	RES1	0.000	
36	 C52	13.426	53.199	96.197	C.3	1	RES1	0.000	
37	 C53	13.910	52.483	93.849	C.3	1	RES1	0.000	
@<TRIPOS>BOND
1 1 14 ar
2 1 17 ar
3 10 29 2
4 11 12 ar
5 11 20 ar
6 12 13 ar
7 13 14 1
8 13 18 ar
9 14 15 ar
10 2 15 ar
11 15 16 1
12 2 17 ar
13 18 19 ar
14 19 20 ar
15 20 21 1
16 3 21 1
17 3 22 1
18 5 22 2
19 22 23 1
20 4 23 1
21 23 24 1
22 24 25 1
23 7 25 1
24 25 26 1
25 4 26 1
26 4 27 1
27 9 27 2
28 27 28 1
29 6 28 1
30 28 34 1
31 6 29 1
32 29 30 1
33 30 31 1
34 30 32 1
35 30 33 1
36 8 31 3
37 32 33 1
38 34 35 1
39 34 36 1
40 34 37 1
@<TRIPOS>SUBSTRUCTURE
1	RES1	1	GROUP	1 ****	RES
