# created with PyMOL 2.5.2
@<TRIPOS>MOLECULE
BRD9_5LLI_E3ligase
37 40 1                 
SMALL
USER_CHARGES
@<TRIPOS>ATOM
1	  S1	15.999	52.724	83.235	S.2	1	RES1	0.000	
2	  N5	15.172	51.557	81.106	N.2	1	RES1	0.000	
3	  N6	11.577	53.752	88.817	N.pl3	1	RES1	0.000	
4	  N7	13.077	55.082	91.809	N.pl3	1	RES1	0.000	
5	  O7	13.232	52.836	90.136	O.2	1	RES1	0.000	
6	  N8	11.394	55.402	94.999	N.pl3	1	RES1	0.000	
7	  O8	16.152	56.481	90.722	O.3	1	RES1	0.000	
8	  N9	9.201	55.366	98.181	N.1	1	RES1	0.000	
9	  O9	10.859	54.828	92.407	O.2	1	RES1	0.000	
10	 O10	12.674	57.008	96.005	O.2	1	RES1	0.000	
11	 C27	12.689	53.510	86.295	C.2	1	RES1	0.000	
12	 C28	13.457	53.385	85.131	C.2	1	RES1	0.000	
13	 C29	13.553	52.162	84.479	C.2	1	RES1	0.000	
14	 C30	14.406	52.031	83.269	C.2	1	RES1	0.000	
15	 C31	14.148	51.449	82.036	C.2	1	RES1	0.000	
16	 C32	12.955	50.696	81.601	C.3	1	RES1	0.000	
17	 C33	16.174	52.211	81.626	C.2	1	RES1	0.000	
18	 C34	12.923	51.057	85.025	C.2	1	RES1	0.000	
19	 C35	12.140	51.186	86.193	C.2	1	RES1	0.000	
20	 C36	12.031	52.397	86.839	C.2	1	RES1	0.000	
21	 C37	11.224	52.535	88.109	C.3	1	RES1	0.000	
22	 C38	12.587	53.804	89.771	C.2	1	RES1	0.000	
23	 C39	12.770	55.208	90.385	C.3	1	RES1	0.000	
24	 C40	13.971	55.934	89.797	C.3	1	RES1	0.000	
25	 C41	15.125	55.510	90.710	C.3	1	RES1	0.000	
26	 C42	14.471	55.409	92.067	C.3	1	RES1	0.000	
27	 C43	12.044	54.891	92.752	C.2	1	RES1	0.000	
28	 C44	12.480	54.762	94.240	C.3	1	RES1	0.000	
29	 C45	11.607	56.450	95.853	C.2	1	RES1	0.000	
30	 C46	10.401	56.995	96.540	C.3	1	RES1	0.000	
31	 C47	9.759	56.082	97.425	C.1	1	RES1	0.000	
32	 C48	9.482	57.910	95.700	C.3	1	RES1	0.000	
33	 C49	10.225	58.484	96.846	C.3	1	RES1	0.000	
34	 C50	12.722	53.274	94.663	C.3	1	RES1	0.000	
35	 C51	11.356	52.587	94.819	C.3	1	RES1	0.000	
36	 C52	13.438	53.239	96.001	C.3	1	RES1	0.000	
37	 C53	13.508	52.477	93.652	C.3	1	RES1	0.000	
@<TRIPOS>BOND
1 1 14 ar
2 1 17 ar
3 10 29 2
4 11 12 ar
5 11 20 ar
6 12 13 ar
7 13 14 1
8 13 18 ar
9 14 15 ar
10 2 15 ar
11 15 16 1
12 2 17 ar
13 18 19 ar
14 19 20 ar
15 20 21 1
16 3 21 1
17 3 22 1
18 5 22 2
19 22 23 1
20 4 23 1
21 23 24 1
22 24 25 1
23 7 25 1
24 25 26 1
25 4 26 1
26 4 27 1
27 9 27 2
28 27 28 1
29 6 28 1
30 28 34 1
31 6 29 1
32 29 30 1
33 30 31 1
34 30 32 1
35 30 33 1
36 8 31 3
37 32 33 1
38 34 35 1
39 34 36 1
40 34 37 1
@<TRIPOS>SUBSTRUCTURE
1	RES1	1	GROUP	1 ****	RES
