# created with PyMOL 2.5.2
@<TRIPOS>MOLECULE
BRD7_4W9H_E3ligase
33 35 1                 
SMALL
USER_CHARGES
@<TRIPOS>ATOM
1	  S1	15.476	51.884	82.303	S.2	1	RES1	0.000	
2	  N5	14.715	50.791	80.101	N.2	1	RES1	0.000	
3	  N6	10.952	52.679	87.783	N.pl3	1	RES1	0.000	
4	  N7	12.509	54.085	90.815	N.pl3	1	RES1	0.000	
5	  O7	12.384	51.701	89.279	O.2	1	RES1	0.000	
6	  N8	11.109	54.708	94.079	N.pl3	1	RES1	0.000	
7	  O8	15.483	55.457	89.356	O.3	1	RES1	0.000	
8	  O9	10.369	53.813	91.597	O.2	1	RES1	0.000	
9	 O10	12.529	56.431	94.631	O.2	1	RES1	0.000	
10	 C27	11.475	50.240	84.997	C.2	1	RES1	0.000	
11	 C28	12.256	50.192	83.846	C.2	1	RES1	0.000	
12	 C29	13.011	51.286	83.425	C.2	1	RES1	0.000	
13	 C30	13.886	51.216	82.244	C.2	1	RES1	0.000	
14	 C31	13.655	50.693	80.980	C.2	1	RES1	0.000	
15	 C32	12.423	50.068	80.445	C.3	1	RES1	0.000	
16	 C33	15.715	51.397	80.701	C.2	1	RES1	0.000	
17	 C34	12.947	52.481	84.198	C.2	1	RES1	0.000	
18	 C35	12.135	52.524	85.337	C.2	1	RES1	0.000	
19	 C36	11.407	51.425	85.767	C.2	1	RES1	0.000	
20	 C37	10.602	51.501	87.021	C.3	1	RES1	0.000	
21	 C38	11.841	52.721	88.819	C.2	1	RES1	0.000	
22	 C39	12.084	54.096	89.423	C.3	1	RES1	0.000	
23	 C40	13.244	54.807	88.669	C.3	1	RES1	0.000	
24	 C41	14.475	54.482	89.548	C.3	1	RES1	0.000	
25	 C42	13.910	54.499	90.951	C.3	1	RES1	0.000	
26	 C43	11.582	53.937	91.842	C.2	1	RES1	0.000	
27	 C44	12.091	53.919	93.302	C.3	1	RES1	0.000	
28	 C45	11.407	55.914	94.645	C.2	1	RES1	0.000	
29	 C46	10.239	56.573	95.318	C.3	1	RES1	0.000	
30	 C47	12.306	52.499	93.889	C.3	1	RES1	0.000	
31	 C48	10.960	51.802	94.062	C.3	1	RES1	0.000	
32	 C49	12.981	52.591	95.264	C.3	1	RES1	0.000	
33	 C50	13.211	51.600	92.997	C.3	1	RES1	0.000	
@<TRIPOS>BOND
1 1 13 ar
2 1 16 ar
3 9 28 2
4 10 11 ar
5 10 19 ar
6 11 12 ar
7 12 13 1
8 12 17 ar
9 13 14 ar
10 2 14 ar
11 14 15 1
12 2 16 ar
13 17 18 ar
14 18 19 ar
15 19 20 1
16 3 20 1
17 3 21 1
18 5 21 2
19 21 22 1
20 4 22 1
21 22 23 1
22 23 24 1
23 7 24 1
24 24 25 1
25 4 25 1
26 4 26 1
27 8 26 2
28 26 27 1
29 6 27 1
30 27 30 1
31 6 28 1
32 28 29 1
33 30 31 1
34 30 32 1
35 30 33 1
@<TRIPOS>SUBSTRUCTURE
1	RES1	1	GROUP	1 ****	RES
