# created with PyMOL 2.5.2
@<TRIPOS>MOLECULE
BRD9_4W9H_E3ligase
33 35 1                 
SMALL
USER_CHARGES
@<TRIPOS>ATOM
1	  S1	15.551	51.284	82.098	S.2	1	RES1	0.000	
2	  N5	14.504	50.260	79.989	N.2	1	RES1	0.000	
3	  N6	11.276	53.112	87.675	N.pl3	1	RES1	0.000	
4	  N7	12.784	54.102	90.921	N.pl3	1	RES1	0.000	
5	  O7	12.234	51.798	89.257	O.2	1	RES1	0.000	
6	  N8	11.075	54.508	94.034	N.pl3	1	RES1	0.000	
7	  O8	13.981	56.761	90.020	O.3	1	RES1	0.000	
8	  O9	10.617	53.636	91.450	O.2	1	RES1	0.000	
9	 O10	12.372	56.246	94.800	O.2	1	RES1	0.000	
10	 C27	11.349	50.573	84.941	C.2	1	RES1	0.000	
11	 C28	12.112	50.314	83.802	C.2	1	RES1	0.000	
12	 C29	13.045	51.239	83.354	C.2	1	RES1	0.000	
13	 C30	13.828	50.934	82.121	C.2	1	RES1	0.000	
14	 C31	13.461	50.408	80.899	C.2	1	RES1	0.000	
15	 C32	12.106	50.003	80.473	C.3	1	RES1	0.000	
16	 C33	15.614	50.710	80.518	C.2	1	RES1	0.000	
17	 C34	13.183	52.455	84.039	C.2	1	RES1	0.000	
18	 C35	12.432	52.708	85.177	C.2	1	RES1	0.000	
19	 C36	11.484	51.790	85.623	C.2	1	RES1	0.000	
20	 C37	10.693	52.039	86.890	C.3	1	RES1	0.000	
21	 C38	12.084	52.898	88.798	C.2	1	RES1	0.000	
22	 C39	12.540	54.197	89.489	C.3	1	RES1	0.000	
23	 C40	13.815	54.670	88.863	C.3	1	RES1	0.000	
24	 C41	14.523	55.409	89.985	C.3	1	RES1	0.000	
25	 C42	14.110	54.646	91.203	C.3	1	RES1	0.000	
26	 C43	11.767	53.825	91.839	C.2	1	RES1	0.000	
27	 C44	12.100	53.760	93.340	C.3	1	RES1	0.000	
28	 C45	11.293	55.713	94.664	C.2	1	RES1	0.000	
29	 C46	10.030	56.313	95.232	C.3	1	RES1	0.000	
30	 C47	12.311	52.308	93.891	C.3	1	RES1	0.000	
31	 C48	10.987	51.530	93.814	C.3	1	RES1	0.000	
32	 C49	12.756	52.346	95.364	C.3	1	RES1	0.000	
33	 C50	13.349	51.514	93.070	C.3	1	RES1	0.000	
@<TRIPOS>BOND
1 1 13 ar
2 1 16 ar
3 9 28 2
4 10 11 ar
5 10 19 ar
6 11 12 ar
7 12 13 1
8 12 17 ar
9 13 14 ar
10 2 14 ar
11 14 15 1
12 2 16 ar
13 17 18 ar
14 18 19 ar
15 19 20 1
16 3 20 1
17 3 21 1
18 5 21 2
19 21 22 1
20 4 22 1
21 22 23 1
22 23 24 1
23 7 24 1
24 24 25 1
25 4 25 1
26 4 26 1
27 8 26 2
28 26 27 1
29 6 27 1
30 27 30 1
31 6 28 1
32 28 29 1
33 30 31 1
34 30 32 1
35 30 33 1
@<TRIPOS>SUBSTRUCTURE
1	RES1	1	GROUP	1 ****	RES
