# created with PyMOL 2.5.2
@<TRIPOS>MOLECULE
BRD7_5NVX_E3ligase
36 39 1                 
SMALL
USER_CHARGES
@<TRIPOS>ATOM
1	  S1	15.848	52.053	82.436	S.2	1	RES1	0.000	
2	  N5	15.031	50.744	80.376	N.2	1	RES1	0.000	
3	  N6	11.368	53.014	88.046	N.pl3	1	RES1	0.000	
4	  N7	12.854	54.279	91.095	N.pl3	1	RES1	0.000	
5	  N8	11.314	54.539	94.339	N.pl3	1	RES1	0.000	
6	  O9	12.999	52.104	89.332	O.2	1	RES1	0.000	
7	 O10	15.777	55.947	89.928	O.3	1	RES1	0.000	
8	 O11	10.720	53.757	91.784	O.2	1	RES1	0.000	
9	 O12	12.448	56.484	94.881	O.2	1	RES1	0.000	
10	 C31	12.571	52.826	85.542	C.2	1	RES1	0.000	
11	 C32	13.358	52.706	84.395	C.2	1	RES1	0.000	
12	 C33	13.445	51.480	83.719	C.2	1	RES1	0.000	
13	 C34	14.282	51.354	82.493	C.2	1	RES1	0.000	
14	 C35	14.003	50.714	81.282	C.2	1	RES1	0.000	
15	 C36	12.746	50.000	80.896	C.3	1	RES1	0.000	
16	 C37	16.033	51.438	80.845	C.2	1	RES1	0.000	
17	 C38	12.731	50.407	84.194	C.2	1	RES1	0.000	
18	 C39	11.934	50.512	85.347	C.2	1	RES1	0.000	
19	 C40	11.849	51.730	86.045	C.2	1	RES1	0.000	
20	 C41	11.042	51.845	87.302	C.3	1	RES1	0.000	
21	 C42	12.321	53.063	89.008	C.2	1	RES1	0.000	
22	 C43	12.461	54.447	89.688	C.3	1	RES1	0.000	
23	 C44	13.571	55.295	89.104	C.3	1	RES1	0.000	
24	 C45	14.802	54.896	89.906	C.3	1	RES1	0.000	
25	 C46	14.226	54.654	91.303	C.3	1	RES1	0.000	
26	 C47	11.891	53.976	92.096	C.2	1	RES1	0.000	
27	 C48	12.385	53.921	93.544	C.3	1	RES1	0.000	
28	 C49	11.456	55.759	94.936	C.2	1	RES1	0.000	
29	 C50	10.237	56.200	95.700	C.3	1	RES1	0.000	
30	 C51	10.389	56.971	97.013	C.3	1	RES1	0.000	
31	 C52	9.873	57.658	95.778	C.3	1	RES1	0.000	
32	 C53	12.699	52.461	94.042	C.3	1	RES1	0.000	
33	 C54	11.479	51.563	94.026	C.3	1	RES1	0.000	
34	 C55	13.282	52.498	95.449	C.3	1	RES1	0.000	
35	 C56	13.763	51.827	93.109	C.3	1	RES1	0.000	
36	  F1	9.146	55.339	95.663	 F	1	RES1	0.000	
@<TRIPOS>BOND
1 1 13 ar
2 1 16 ar
3 7 24 1
4 8 26 2
5 9 28 2
6 10 11 ar
7 10 19 ar
8 11 12 ar
9 12 13 1
10 12 17 ar
11 13 14 ar
12 2 14 ar
13 14 15 1
14 2 16 ar
15 17 18 ar
16 18 19 ar
17 19 20 1
18 3 20 1
19 3 21 1
20 6 21 2
21 21 22 1
22 4 22 1
23 22 23 1
24 23 24 1
25 24 25 1
26 4 25 1
27 4 26 1
28 26 27 1
29 5 27 1
30 27 32 1
31 5 28 1
32 28 29 1
33 29 30 1
34 29 31 1
35 30 31 1
36 32 33 1
37 32 34 1
38 32 35 1
39 29 36 1
@<TRIPOS>SUBSTRUCTURE
1	RES1	1	GROUP	1 ****	RES
