# created with PyMOL 2.5.2
@<TRIPOS>MOLECULE
BRD9_5NVX_E3ligase
36 39 1                 
SMALL
USER_CHARGES
@<TRIPOS>ATOM
1	  S1	15.857	51.994	82.490	S.2	1	RES1	0.000	
2	  N5	15.011	50.791	80.349	N.2	1	RES1	0.000	
3	  N6	11.313	53.010	88.047	N.pl3	1	RES1	0.000	
4	  N7	12.811	54.298	91.075	N.pl3	1	RES1	0.000	
5	  N8	11.364	54.531	94.373	N.pl3	1	RES1	0.000	
6	  O9	12.953	52.052	89.344	O.2	1	RES1	0.000	
7	 O10	15.731	55.908	89.805	O.3	1	RES1	0.000	
8	 O11	10.719	53.802	91.823	O.2	1	RES1	0.000	
9	 O12	12.544	56.440	94.944	O.2	1	RES1	0.000	
10	 C31	11.887	50.494	85.330	C.2	1	RES1	0.000	
11	 C32	12.691	50.388	84.210	C.2	1	RES1	0.000	
12	 C33	13.455	51.479	83.749	C.2	1	RES1	0.000	
13	 C34	14.247	51.331	82.520	C.2	1	RES1	0.000	
14	 C35	13.973	50.750	81.278	C.2	1	RES1	0.000	
15	 C36	12.708	50.113	80.863	C.3	1	RES1	0.000	
16	 C37	16.035	51.404	80.861	C.2	1	RES1	0.000	
17	 C38	13.350	52.688	84.426	C.2	1	RES1	0.000	
18	 C39	12.549	52.796	85.571	C.2	1	RES1	0.000	
19	 C40	11.824	51.699	86.029	C.2	1	RES1	0.000	
20	 C41	10.990	51.818	87.301	C.3	1	RES1	0.000	
21	 C42	12.280	53.021	89.013	C.2	1	RES1	0.000	
22	 C43	12.412	54.415	89.688	C.3	1	RES1	0.000	
23	 C44	13.523	55.268	89.059	C.3	1	RES1	0.000	
24	 C45	14.742	54.870	89.862	C.3	1	RES1	0.000	
25	 C46	14.213	54.660	91.250	C.3	1	RES1	0.000	
26	 C47	11.887	53.987	92.086	C.2	1	RES1	0.000	
27	 C48	12.414	53.898	93.536	C.3	1	RES1	0.000	
28	 C49	11.500	55.794	94.978	C.2	1	RES1	0.000	
29	 C50	10.284	56.230	95.721	C.3	1	RES1	0.000	
30	 C51	9.939	57.688	95.776	C.3	1	RES1	0.000	
31	 C52	10.446	57.022	96.999	C.3	1	RES1	0.000	
32	 C53	12.769	52.468	94.013	C.3	1	RES1	0.000	
33	 C54	11.524	51.593	94.200	C.3	1	RES1	0.000	
34	 C55	13.525	52.578	95.357	C.3	1	RES1	0.000	
35	 C56	13.671	51.771	92.993	C.3	1	RES1	0.000	
36	  F1	9.188	55.388	95.685	 F	1	RES1	0.000	
@<TRIPOS>BOND
1 1 13 ar
2 1 16 ar
3 7 24 1
4 8 26 2
5 9 28 2
6 10 11 ar
7 10 19 ar
8 11 12 ar
9 12 13 1
10 12 17 ar
11 13 14 ar
12 2 14 ar
13 14 15 1
14 2 16 ar
15 17 18 ar
16 18 19 ar
17 19 20 1
18 3 20 1
19 3 21 1
20 6 21 2
21 21 22 1
22 4 22 1
23 22 23 1
24 23 24 1
25 24 25 1
26 4 25 1
27 4 26 1
28 26 27 1
29 5 27 1
30 27 32 1
31 5 28 1
32 28 29 1
33 29 30 1
34 29 31 1
35 30 31 1
36 32 33 1
37 32 34 1
38 32 35 1
39 29 36 1
@<TRIPOS>SUBSTRUCTURE
1	RES1	1	GROUP	1 ****	RES
