# created with PyMOL 2.5.2
@<TRIPOS>MOLECULE
BRD7_5LLI_E3ligase
37 40 1                 
SMALL
USER_CHARGES
@<TRIPOS>ATOM
1	  S1	15.971	52.724	83.231	S.2	1	RES1	0.000	
2	  N5	15.166	51.492	81.121	N.2	1	RES1	0.000	
3	  N6	11.598	53.727	88.829	N.pl3	1	RES1	0.000	
4	  N7	13.081	55.055	91.871	N.pl3	1	RES1	0.000	
5	  N8	11.428	55.340	95.074	N.pl3	1	RES1	0.000	
6	  N9	8.199	55.479	96.404	N.1	1	RES1	0.000	
7	  O9	13.315	52.828	90.068	O.2	1	RES1	0.000	
8	 O10	16.086	56.566	90.703	O.3	1	RES1	0.000	
9	 O11	10.905	54.667	92.537	O.2	1	RES1	0.000	
10	 O12	12.579	57.119	95.900	O.2	1	RES1	0.000	
11	 C31	12.170	51.162	86.177	C.2	1	RES1	0.000	
12	 C32	12.891	51.059	84.996	C.2	1	RES1	0.000	
13	 C33	13.556	52.171	84.467	C.2	1	RES1	0.000	
14	 C34	14.390	52.052	83.260	C.2	1	RES1	0.000	
15	 C35	14.127	51.437	82.028	C.2	1	RES1	0.000	
16	 C36	12.875	50.792	81.588	C.3	1	RES1	0.000	
17	 C37	16.188	52.162	81.630	C.2	1	RES1	0.000	
18	 C38	13.469	53.399	85.160	C.2	1	RES1	0.000	
19	 C39	12.722	53.506	86.302	C.2	1	RES1	0.000	
20	 C40	12.055	52.373	86.833	C.2	1	RES1	0.000	
21	 C41	11.258	52.499	88.098	C.3	1	RES1	0.000	
22	 C42	12.624	53.790	89.794	C.2	1	RES1	0.000	
23	 C43	12.744	55.161	90.449	C.3	1	RES1	0.000	
24	 C44	13.897	55.963	89.853	C.3	1	RES1	0.000	
25	 C45	15.054	55.549	90.698	C.3	1	RES1	0.000	
26	 C46	14.473	55.367	92.100	C.3	1	RES1	0.000	
27	 C47	12.075	54.826	92.828	C.2	1	RES1	0.000	
28	 C48	12.529	54.754	94.328	C.3	1	RES1	0.000	
29	 C49	11.530	56.487	95.841	C.2	1	RES1	0.000	
30	 C50	10.305	56.976	96.540	C.3	1	RES1	0.000	
31	 C51	9.126	56.176	96.465	C.1	1	RES1	0.000	
32	 C52	10.480	57.756	97.821	C.3	1	RES1	0.000	
33	 C53	10.072	58.481	96.584	C.3	1	RES1	0.000	
34	 C54	12.919	53.332	94.789	C.3	1	RES1	0.000	
35	 C55	11.661	52.430	94.829	C.3	1	RES1	0.000	
36	 C56	13.526	53.361	96.192	C.3	1	RES1	0.000	
37	 C57	13.941	52.654	93.859	C.3	1	RES1	0.000	
@<TRIPOS>BOND
1 1 14 ar
2 1 17 ar
3 8 25 1
4 9 27 2
5 10 29 2
6 11 12 ar
7 11 20 ar
8 12 13 ar
9 13 14 1
10 13 18 ar
11 14 15 ar
12 2 15 ar
13 15 16 1
14 2 17 ar
15 18 19 ar
16 19 20 ar
17 20 21 1
18 3 21 1
19 3 22 1
20 7 22 2
21 22 23 1
22 4 23 1
23 23 24 1
24 24 25 1
25 25 26 1
26 4 26 1
27 4 27 1
28 27 28 1
29 5 28 1
30 28 34 1
31 5 29 1
32 29 30 1
33 30 31 1
34 30 32 1
35 30 33 1
36 6 31 3
37 32 33 1
38 34 35 1
39 34 36 1
40 34 37 1
@<TRIPOS>SUBSTRUCTURE
1	RES1	1	GROUP	1 ****	RES
