# created with PyMOL 2.5.2
@<TRIPOS>MOLECULE
CDK6_6H0G_E3ligase
20 22 1                 
SMALL
USER_CHARGES
@<TRIPOS>ATOM
1	  N6	1.991	54.436	-85.601	N.pl3	1	RES1	0.000	
2	  O6	2.828	53.748	-82.841	O.2	1	RES1	0.000	
3	  N7	1.729	51.770	-82.117	N.2	1	RES1	0.000	
4	  O7	3.700	49.683	-77.407	O.2	1	RES1	0.000	
5	  N8	1.974	50.076	-78.860	N.pl3	1	RES1	0.000	
6	  O8	0.219	50.410	-80.217	O.2	1	RES1	0.000	
7	  O9	0.419	49.815	-82.251	O.2	1	RES1	0.000	
8	 C25	1.335	53.185	-85.456	C.2	1	RES1	0.000	
9	 C26	0.525	52.671	-86.476	C.2	1	RES1	0.000	
10	 C27	-0.207	51.507	-86.290	C.2	1	RES1	0.000	
11	 C28	-0.124	50.785	-85.100	C.2	1	RES1	0.000	
12	 C29	0.640	51.340	-84.066	C.2	1	RES1	0.000	
13	 C30	1.362	52.499	-84.234	C.2	1	RES1	0.000	
14	 C31	2.067	52.791	-82.990	C.2	1	RES1	0.000	
15	 C32	2.243	51.634	-80.743	C.3	1	RES1	0.000	
16	 C33	3.708	51.253	-80.654	C.3	1	RES1	0.000	
17	 C34	4.157	51.217	-79.206	C.3	1	RES1	0.000	
18	 C35	3.284	50.253	-78.408	C.2	1	RES1	0.000	
19	 C36	1.374	50.650	-79.939	C.2	1	RES1	0.000	
20	 C37	0.901	50.871	-82.712	C.2	1	RES1	0.000	
@<TRIPOS>BOND
1 1 8 1
2 8 9 ar
3 8 13 ar
4 9 10 ar
5 10 11 ar
6 11 12 ar
7 12 13 ar
8 12 20 ar
9 13 14 ar
10 2 14 2
11 3 14 ar
12 3 15 1
13 15 16 1
14 15 19 1
15 16 17 1
16 17 18 1
17 4 18 2
18 5 18 1
19 5 19 1
20 6 19 2
21 3 20 ar
22 7 20 2
@<TRIPOS>SUBSTRUCTURE
1	RES1	1	GROUP	1 ****	RES
