# created with PyMOL 2.5.2
@<TRIPOS>MOLECULE
BRD9_5LLI_E3ligase
37 40 1                 
SMALL
USER_CHARGES
@<TRIPOS>ATOM
1	  S1	16.114	52.361	83.054	S.2	1	RES1	0.000	
2	  N5	15.264	51.172	80.972	N.2	1	RES1	0.000	
3	  N6	11.764	53.992	88.563	N.pl3	1	RES1	0.000	
4	  N7	13.107	54.935	91.861	N.pl3	1	RES1	0.000	
5	  N8	11.376	55.376	95.059	N.pl3	1	RES1	0.000	
6	  N9	9.334	55.488	98.429	N.1	1	RES1	0.000	
7	  O9	13.088	52.723	89.982	O.2	1	RES1	0.000	
8	 O10	14.683	57.447	91.400	O.3	1	RES1	0.000	
9	 O11	10.907	54.761	92.491	O.2	1	RES1	0.000	
10	 O12	12.630	56.986	96.100	O.2	1	RES1	0.000	
11	 C31	12.892	53.614	86.016	C.2	1	RES1	0.000	
12	 C32	13.642	53.384	84.883	C.2	1	RES1	0.000	
13	 C33	13.594	52.146	84.242	C.2	1	RES1	0.000	
14	 C34	14.455	51.878	83.061	C.2	1	RES1	0.000	
15	 C35	14.177	51.259	81.857	C.2	1	RES1	0.000	
16	 C36	12.878	50.719	81.381	C.3	1	RES1	0.000	
17	 C37	16.312	51.692	81.524	C.2	1	RES1	0.000	
18	 C38	12.786	51.148	84.775	C.2	1	RES1	0.000	
19	 C39	12.034	51.395	85.942	C.2	1	RES1	0.000	
20	 C40	12.089	52.623	86.568	C.2	1	RES1	0.000	
21	 C41	11.255	52.872	87.799	C.3	1	RES1	0.000	
22	 C42	12.651	53.817	89.633	C.2	1	RES1	0.000	
23	 C43	13.005	55.089	90.401	C.3	1	RES1	0.000	
24	 C44	14.412	55.513	89.960	C.3	1	RES1	0.000	
25	 C45	15.054	56.075	91.208	C.3	1	RES1	0.000	
26	 C46	14.455	55.223	92.308	C.3	1	RES1	0.000	
27	 C47	12.080	54.780	92.810	C.2	1	RES1	0.000	
28	 C48	12.494	54.719	94.310	C.3	1	RES1	0.000	
29	 C49	11.535	56.455	95.885	C.2	1	RES1	0.000	
30	 C50	10.326	56.978	96.603	C.3	1	RES1	0.000	
31	 C51	9.794	56.128	97.614	C.1	1	RES1	0.000	
32	 C52	9.342	57.845	95.837	C.3	1	RES1	0.000	
33	 C53	10.221	58.496	96.815	C.3	1	RES1	0.000	
34	 C54	12.744	53.249	94.823	C.3	1	RES1	0.000	
35	 C55	11.428	52.438	94.883	C.3	1	RES1	0.000	
36	 C56	13.337	53.340	96.238	C.3	1	RES1	0.000	
37	 C57	13.724	52.545	93.935	C.3	1	RES1	0.000	
@<TRIPOS>BOND
1 1 14 ar
2 1 17 ar
3 8 25 1
4 9 27 2
5 10 29 2
6 11 12 ar
7 11 20 ar
8 12 13 ar
9 13 14 1
10 13 18 ar
11 14 15 ar
12 2 15 ar
13 15 16 1
14 2 17 ar
15 18 19 ar
16 19 20 ar
17 20 21 1
18 3 21 1
19 3 22 1
20 7 22 2
21 22 23 1
22 4 23 1
23 23 24 1
24 24 25 1
25 25 26 1
26 4 26 1
27 4 27 1
28 27 28 1
29 5 28 1
30 28 34 1
31 5 29 1
32 29 30 1
33 30 31 1
34 30 32 1
35 30 33 1
36 6 31 3
37 32 33 1
38 34 35 1
39 34 36 1
40 34 37 1
@<TRIPOS>SUBSTRUCTURE
1	RES1	1	GROUP	1 ****	RES
