# created with PyMOL 2.5.2
@<TRIPOS>MOLECULE
BRD7_4W9H_E3ligase
33 35 1                 
SMALL
USER_CHARGES
@<TRIPOS>ATOM
1	  S1	15.598	51.435	82.054	S.2	1	RES1	0.000	
2	  N5	14.598	50.333	79.969	N.2	1	RES1	0.000	
3	  N6	11.187	53.062	87.590	N.pl3	1	RES1	0.000	
4	  N7	12.582	54.047	90.894	N.pl3	1	RES1	0.000	
5	  N8	11.084	54.563	94.116	N.pl3	1	RES1	0.000	
6	  O9	12.252	51.780	89.171	O.2	1	RES1	0.000	
7	 O10	14.084	56.552	90.243	O.3	1	RES1	0.000	
8	 O11	10.458	53.713	91.640	O.2	1	RES1	0.000	
9	 O12	12.376	56.413	94.636	O.2	1	RES1	0.000	
10	 C31	12.364	52.707	85.102	C.2	1	RES1	0.000	
11	 C32	13.179	52.471	83.987	C.2	1	RES1	0.000	
12	 C33	13.120	51.245	83.296	C.2	1	RES1	0.000	
13	 C34	13.925	51.010	82.118	C.2	1	RES1	0.000	
14	 C35	13.582	50.429	80.875	C.2	1	RES1	0.000	
15	 C36	12.253	49.933	80.435	C.3	1	RES1	0.000	
16	 C37	15.699	50.818	80.476	C.2	1	RES1	0.000	
17	 C38	12.222	50.243	83.782	C.2	1	RES1	0.000	
18	 C39	11.443	50.468	84.924	C.2	1	RES1	0.000	
19	 C40	11.479	51.719	85.576	C.2	1	RES1	0.000	
20	 C41	10.654	51.966	86.807	C.3	1	RES1	0.000	
21	 C42	11.977	52.876	88.723	C.2	1	RES1	0.000	
22	 C43	12.389	54.170	89.428	C.3	1	RES1	0.000	
23	 C44	13.725	54.597	88.894	C.3	1	RES1	0.000	
24	 C45	14.447	55.210	90.080	C.3	1	RES1	0.000	
25	 C46	13.958	54.386	91.246	C.3	1	RES1	0.000	
26	 C47	11.615	53.851	91.902	C.2	1	RES1	0.000	
27	 C48	12.116	53.827	93.390	C.3	1	RES1	0.000	
28	 C49	11.309	55.806	94.689	C.2	1	RES1	0.000	
29	 C50	10.075	56.381	95.368	C.3	1	RES1	0.000	
30	 C51	12.338	52.400	93.930	C.3	1	RES1	0.000	
31	 C52	12.869	52.352	95.381	C.3	1	RES1	0.000	
32	 C53	13.368	51.678	93.035	C.3	1	RES1	0.000	
33	 C54	11.045	51.565	93.876	C.3	1	RES1	0.000	
@<TRIPOS>BOND
1 1 13 ar
2 1 16 ar
3 7 24 1
4 8 26 2
5 9 28 2
6 10 11 ar
7 10 19 ar
8 11 12 ar
9 12 13 1
10 12 17 ar
11 13 14 ar
12 2 14 ar
13 14 15 1
14 2 16 ar
15 17 18 ar
16 18 19 ar
17 19 20 1
18 3 20 1
19 3 21 1
20 6 21 2
21 21 22 1
22 4 22 1
23 22 23 1
24 23 24 1
25 24 25 1
26 4 25 1
27 4 26 1
28 26 27 1
29 5 27 1
30 27 30 1
31 5 28 1
32 28 29 1
33 30 31 1
34 30 32 1
35 30 33 1
@<TRIPOS>SUBSTRUCTURE
1	RES1	1	GROUP	1 ****	RES
