# created with PyMOL 2.5.2
@<TRIPOS>MOLECULE
BRD9_4W9H_E3ligase
33 35 1                 
SMALL
USER_CHARGES
@<TRIPOS>ATOM
1	  S1	15.500	51.726	82.217	S.2	1	RES1	0.000	
2	  N5	14.682	50.537	80.108	N.2	1	RES1	0.000	
3	  N6	10.993	52.828	87.706	N.pl3	1	RES1	0.000	
4	  N7	12.503	54.137	90.847	N.pl3	1	RES1	0.000	
5	  N8	11.106	54.613	94.095	N.pl3	1	RES1	0.000	
6	  O9	12.429	51.831	89.199	O.2	1	RES1	0.000	
7	 O10	15.441	55.704	89.482	O.3	1	RES1	0.000	
8	 O11	10.394	53.741	91.601	O.2	1	RES1	0.000	
9	 O12	12.479	56.373	94.689	O.2	1	RES1	0.000	
10	 C31	12.129	52.623	85.246	C.2	1	RES1	0.000	
11	 C32	12.927	52.518	84.073	C.2	1	RES1	0.000	
12	 C33	13.020	51.310	83.402	C.2	1	RES1	0.000	
13	 C34	13.877	51.155	82.227	C.2	1	RES1	0.000	
14	 C35	13.617	50.584	81.005	C.2	1	RES1	0.000	
15	 C36	12.346	49.995	80.523	C.3	1	RES1	0.000	
16	 C37	15.726	51.131	80.642	C.2	1	RES1	0.000	
17	 C38	12.303	50.201	83.889	C.2	1	RES1	0.000	
18	 C39	11.505	50.323	85.032	C.2	1	RES1	0.000	
19	 C40	11.420	51.536	85.701	C.2	1	RES1	0.000	
20	 C41	10.632	51.656	86.987	C.3	1	RES1	0.000	
21	 C42	11.920	52.832	88.768	C.2	1	RES1	0.000	
22	 C43	12.132	54.232	89.447	C.3	1	RES1	0.000	
23	 C44	13.224	54.985	88.755	C.3	1	RES1	0.000	
24	 C45	14.454	54.691	89.582	C.3	1	RES1	0.000	
25	 C46	13.915	54.635	91.012	C.3	1	RES1	0.000	
26	 C47	11.582	53.920	91.885	C.2	1	RES1	0.000	
27	 C48	12.074	53.842	93.335	C.3	1	RES1	0.000	
28	 C49	11.372	55.820	94.692	C.2	1	RES1	0.000	
29	 C50	10.210	56.431	95.377	C.3	1	RES1	0.000	
30	 C51	12.308	52.415	93.882	C.3	1	RES1	0.000	
31	 C52	10.973	51.665	94.002	C.3	1	RES1	0.000	
32	 C53	12.940	52.449	95.260	C.3	1	RES1	0.000	
33	 C54	13.239	51.570	92.968	C.3	1	RES1	0.000	
@<TRIPOS>BOND
1 1 13 ar
2 1 16 ar
3 7 24 1
4 8 26 2
5 9 28 2
6 10 11 ar
7 10 19 ar
8 11 12 ar
9 12 13 1
10 12 17 ar
11 13 14 ar
12 2 14 ar
13 14 15 1
14 2 16 ar
15 17 18 ar
16 18 19 ar
17 19 20 1
18 3 20 1
19 3 21 1
20 6 21 2
21 21 22 1
22 4 22 1
23 22 23 1
24 23 24 1
25 24 25 1
26 4 25 1
27 4 26 1
28 26 27 1
29 5 27 1
30 27 30 1
31 5 28 1
32 28 29 1
33 30 31 1
34 30 32 1
35 30 33 1
@<TRIPOS>SUBSTRUCTURE
1	RES1	1	GROUP	1 ****	RES
