# created with PyMOL 2.5.2
@<TRIPOS>MOLECULE
BRD7_5NVX_E3ligase
36 39 1                 
SMALL
USER_CHARGES
@<TRIPOS>ATOM
1	  S1	15.948	51.713	82.495	S.2	1	RES1	0.000	
2	  N5	15.034	50.594	80.352	N.2	1	RES1	0.000	
3	  N6	11.419	53.200	87.939	N.pl3	1	RES1	0.000	
4	  O6	12.842	51.909	89.174	O.2	1	RES1	0.000	
5	  N7	13.051	54.114	91.149	N.pl3	1	RES1	0.000	
6	  O7	14.161	56.803	90.463	O.3	1	RES1	0.000	
7	  N8	11.382	54.481	94.361	N.pl3	1	RES1	0.000	
8	  O8	10.876	53.659	91.793	O.2	1	RES1	0.000	
9	  O9	12.572	56.387	94.942	O.2	1	RES1	0.000	
10	 C25	11.685	50.697	85.181	C.2	1	RES1	0.000	
11	 C26	12.538	50.525	84.061	C.2	1	RES1	0.000	
12	 C27	13.413	51.508	83.630	C.2	1	RES1	0.000	
13	 C28	14.278	51.279	82.466	C.2	1	RES1	0.000	
14	 C29	13.986	50.638	81.257	C.2	1	RES1	0.000	
15	 C30	12.709	50.067	80.799	C.3	1	RES1	0.000	
16	 C31	16.117	51.129	80.899	C.2	1	RES1	0.000	
17	 C32	13.466	52.697	84.359	C.2	1	RES1	0.000	
18	 C33	12.624	52.911	85.451	C.2	1	RES1	0.000	
19	 C34	11.756	51.912	85.877	C.2	1	RES1	0.000	
20	 C35	10.932	52.117	87.138	C.3	1	RES1	0.000	
21	 C36	12.345	52.972	88.963	C.2	1	RES1	0.000	
22	 C37	12.750	54.257	89.728	C.3	1	RES1	0.000	
23	 C38	13.992	54.844	89.105	C.3	1	RES1	0.000	
24	 C39	14.729	55.519	90.273	C.3	1	RES1	0.000	
25	 C40	14.380	54.614	91.445	C.3	1	RES1	0.000	
26	 C41	12.046	53.869	92.120	C.2	1	RES1	0.000	
27	 C42	12.469	53.821	93.599	C.3	1	RES1	0.000	
28	 C43	11.543	55.734	94.945	C.2	1	RES1	0.000	
29	 C44	10.297	56.258	95.604	C.3	1	RES1	0.000	
30	 C45	10.005	57.736	95.629	C.3	1	RES1	0.000	
31	 C46	10.370	57.030	96.872	C.3	1	RES1	0.000	
32	 C47	12.772	52.381	94.129	C.3	1	RES1	0.000	
33	 C48	11.529	51.454	94.104	C.3	1	RES1	0.000	
34	 C49	13.281	52.456	95.570	C.3	1	RES1	0.000	
35	 C50	13.864	51.748	93.265	C.3	1	RES1	0.000	
36	  F1	9.169	55.413	95.473	 F	1	RES1	0.000	
@<TRIPOS>BOND
1 1 13 ar
2 1 16 ar
3 10 11 ar
4 10 19 ar
5 11 12 ar
6 12 13 1
7 12 17 ar
8 13 14 ar
9 2 14 ar
10 14 15 1
11 2 16 ar
12 17 18 ar
13 18 19 ar
14 19 20 1
15 3 20 1
16 3 21 1
17 4 21 2
18 21 22 1
19 5 22 1
20 22 23 1
21 23 24 1
22 6 24 1
23 24 25 1
24 5 25 1
25 5 26 1
26 8 26 2
27 26 27 1
28 7 27 1
29 27 32 1
30 7 28 1
31 9 28 2
32 28 29 1
33 29 30 1
34 29 31 1
35 30 31 1
36 32 33 1
37 32 34 1
38 32 35 1
39 29 36 1
@<TRIPOS>SUBSTRUCTURE
1	RES1	1	GROUP	1 ****	RES
