# created with PyMOL 2.5.2
@<TRIPOS>MOLECULE
BRD9_5NVX_E3ligase
36 39 1                 
SMALL
USER_CHARGES
@<TRIPOS>ATOM
1	  S1	15.806	52.181	82.496	S.2	1	RES1	0.000	
2	  N5	15.046	50.842	80.395	N.2	1	RES1	0.000	
3	  N6	11.256	53.000	88.035	N.pl3	1	RES1	0.000	
4	  O6	12.918	52.057	89.342	O.2	1	RES1	0.000	
5	  N7	12.809	54.226	91.061	N.pl3	1	RES1	0.000	
6	  O7	15.746	55.841	89.805	O.3	1	RES1	0.000	
7	  N8	11.372	54.544	94.357	N.pl3	1	RES1	0.000	
8	  O8	10.676	53.806	91.833	O.2	1	RES1	0.000	
9	  O9	12.579	56.444	94.883	O.2	1	RES1	0.000	
10	 C25	12.468	52.787	85.568	C.2	1	RES1	0.000	
11	 C26	13.272	52.696	84.447	C.2	1	RES1	0.000	
12	 C27	13.451	51.480	83.762	C.2	1	RES1	0.000	
13	 C28	14.243	51.403	82.539	C.2	1	RES1	0.000	
14	 C29	14.021	50.750	81.319	C.2	1	RES1	0.000	
15	 C30	12.814	49.987	80.912	C.3	1	RES1	0.000	
16	 C31	16.029	51.570	80.896	C.2	1	RES1	0.000	
17	 C32	12.752	50.372	84.219	C.2	1	RES1	0.000	
18	 C33	11.949	50.461	85.376	C.2	1	RES1	0.000	
19	 C34	11.775	51.657	86.048	C.2	1	RES1	0.000	
20	 C35	10.948	51.766	87.290	C.3	1	RES1	0.000	
21	 C36	12.242	53.018	89.010	C.2	1	RES1	0.000	
22	 C37	12.386	54.401	89.676	C.3	1	RES1	0.000	
23	 C38	13.498	55.228	89.044	C.3	1	RES1	0.000	
24	 C39	14.728	54.822	89.826	C.3	1	RES1	0.000	
25	 C40	14.204	54.611	91.260	C.3	1	RES1	0.000	
26	 C41	11.879	53.979	92.065	C.2	1	RES1	0.000	
27	 C42	12.396	53.873	93.550	C.3	1	RES1	0.000	
28	 C43	11.562	55.790	94.953	C.2	1	RES1	0.000	
29	 C44	10.353	56.292	95.669	C.3	1	RES1	0.000	
30	 C45	10.039	57.748	95.733	C.3	1	RES1	0.000	
31	 C46	10.486	57.038	96.978	C.3	1	RES1	0.000	
32	 C47	12.726	52.447	94.028	C.3	1	RES1	0.000	
33	 C48	11.499	51.593	94.280	C.3	1	RES1	0.000	
34	 C49	13.529	52.529	95.342	C.3	1	RES1	0.000	
35	 C50	13.647	51.754	92.985	C.3	1	RES1	0.000	
36	  F1	9.224	55.453	95.629	 F	1	RES1	0.000	
@<TRIPOS>BOND
1 1 13 ar
2 1 16 ar
3 10 11 ar
4 10 19 ar
5 11 12 ar
6 12 13 1
7 12 17 ar
8 13 14 ar
9 2 14 ar
10 14 15 1
11 2 16 ar
12 17 18 ar
13 18 19 ar
14 19 20 1
15 3 20 1
16 3 21 1
17 4 21 2
18 21 22 1
19 5 22 1
20 22 23 1
21 23 24 1
22 6 24 1
23 24 25 1
24 5 25 1
25 5 26 1
26 8 26 2
27 26 27 1
28 7 27 1
29 27 32 1
30 7 28 1
31 9 28 2
32 28 29 1
33 29 30 1
34 29 31 1
35 30 31 1
36 32 33 1
37 32 34 1
38 32 35 1
39 29 36 1
@<TRIPOS>SUBSTRUCTURE
1	RES1	1	GROUP	1 ****	RES
