# created with PyMOL 2.5.2
@<TRIPOS>MOLECULE
BRD7_5NVX_E3ligase
36 39 1                 
SMALL
USER_CHARGES
@<TRIPOS>ATOM
1	  S1	15.896	52.149	82.477	S.2	1	RES1	0.000	
2	  N5	15.256	50.868	80.346	N.2	1	RES1	0.000	
3	  N6	11.265	52.968	87.910	N.pl3	1	RES1	0.000	
4	  O6	12.851	51.979	89.256	O.2	1	RES1	0.000	
5	  N7	12.667	54.212	91.086	N.pl3	1	RES1	0.000	
6	  O7	15.738	55.598	89.951	O.3	1	RES1	0.000	
7	  N8	11.316	54.641	94.405	N.pl3	1	RES1	0.000	
8	  O8	10.627	53.694	91.937	O.2	1	RES1	0.000	
9	  O9	12.395	56.627	94.788	O.2	1	RES1	0.000	
10	 C25	11.901	50.509	85.168	C.2	1	RES1	0.000	
11	 C26	12.728	50.413	84.048	C.2	1	RES1	0.000	
12	 C27	13.427	51.538	83.598	C.2	1	RES1	0.000	
13	 C28	14.343	51.412	82.436	C.2	1	RES1	0.000	
14	 C29	14.181	50.774	81.234	C.2	1	RES1	0.000	
15	 C30	13.044	49.938	80.767	C.3	1	RES1	0.000	
16	 C31	16.195	51.581	80.896	C.2	1	RES1	0.000	
17	 C32	13.344	52.700	84.334	C.2	1	RES1	0.000	
18	 C33	12.533	52.802	85.459	C.2	1	RES1	0.000	
19	 C34	11.809	51.694	85.906	C.2	1	RES1	0.000	
20	 C35	10.960	51.769	87.152	C.3	1	RES1	0.000	
21	 C36	12.207	52.963	88.917	C.2	1	RES1	0.000	
22	 C37	12.352	54.287	89.645	C.3	1	RES1	0.000	
23	 C38	13.545	55.076	89.059	C.3	1	RES1	0.000	
24	 C39	14.700	54.626	89.920	C.3	1	RES1	0.000	
25	 C40	14.061	54.482	91.329	C.3	1	RES1	0.000	
26	 C41	11.798	53.952	92.152	C.2	1	RES1	0.000	
27	 C42	12.371	54.025	93.576	C.3	1	RES1	0.000	
28	 C43	11.414	55.890	94.943	C.2	1	RES1	0.000	
29	 C44	10.278	56.287	95.821	C.3	1	RES1	0.000	
30	 C45	9.820	57.714	95.938	C.3	1	RES1	0.000	
31	 C46	10.519	57.073	97.090	C.3	1	RES1	0.000	
32	 C47	12.767	52.594	94.124	C.3	1	RES1	0.000	
33	 C48	11.556	51.625	94.247	C.3	1	RES1	0.000	
34	 C49	13.401	52.729	95.518	C.3	1	RES1	0.000	
35	 C50	13.810	51.937	93.233	C.3	1	RES1	0.000	
36	  F1	9.258	55.320	95.948	 F	1	RES1	0.000	
@<TRIPOS>BOND
1 1 13 ar
2 1 16 ar
3 10 11 ar
4 10 19 ar
5 11 12 ar
6 12 13 1
7 12 17 ar
8 13 14 ar
9 2 14 ar
10 14 15 1
11 2 16 ar
12 17 18 ar
13 18 19 ar
14 19 20 1
15 3 20 1
16 3 21 1
17 4 21 2
18 21 22 1
19 5 22 1
20 22 23 1
21 23 24 1
22 6 24 1
23 24 25 1
24 5 25 1
25 5 26 1
26 8 26 2
27 26 27 1
28 7 27 1
29 27 32 1
30 7 28 1
31 9 28 2
32 28 29 1
33 29 30 1
34 29 31 1
35 30 31 1
36 32 33 1
37 32 34 1
38 32 35 1
39 29 36 1
@<TRIPOS>SUBSTRUCTURE
1	RES1	1	GROUP	1 ****	RES
