# created with PyMOL 2.5.2
@<TRIPOS>MOLECULE
BRD7_5NVX_E3ligase
36 39 1                 
SMALL
USER_CHARGES
@<TRIPOS>ATOM
1	  S1	15.866	51.758	82.449	S.2	1	RES1	0.000	
2	  N5	14.932	50.600	80.375	N.2	1	RES1	0.000	
3	  N6	11.492	53.244	88.015	N.pl3	1	RES1	0.000	
4	  N7	13.054	54.232	91.107	N.pl3	1	RES1	0.000	
5	  O7	12.888	52.035	89.420	O.2	1	RES1	0.000	
6	  N8	11.344	54.446	94.285	N.pl3	1	RES1	0.000	
7	  O8	14.433	56.871	90.618	O.3	1	RES1	0.000	
8	  O9	10.905	53.737	91.657	O.2	1	RES1	0.000	
9	 O10	12.538	56.348	94.932	O.2	1	RES1	0.000	
10	 C27	12.649	52.900	85.521	C.2	1	RES1	0.000	
11	 C28	13.449	52.664	84.358	C.2	1	RES1	0.000	
12	 C29	13.382	51.430	83.691	C.2	1	RES1	0.000	
13	 C30	14.240	51.217	82.503	C.2	1	RES1	0.000	
14	 C31	13.916	50.603	81.282	C.2	1	RES1	0.000	
15	 C32	12.642	49.950	80.888	C.3	1	RES1	0.000	
16	 C33	16.006	51.173	80.862	C.2	1	RES1	0.000	
17	 C34	12.582	50.447	84.192	C.2	1	RES1	0.000	
18	 C35	11.797	50.652	85.344	C.2	1	RES1	0.000	
19	 C36	11.807	51.884	86.018	C.2	1	RES1	0.000	
20	 C37	11.020	52.112	87.256	C.3	1	RES1	0.000	
21	 C38	12.413	53.113	89.026	C.2	1	RES1	0.000	
22	 C39	12.757	54.471	89.705	C.3	1	RES1	0.000	
23	 C40	14.049	55.072	89.083	C.3	1	RES1	0.000	
24	 C41	14.840	55.535	90.296	C.3	1	RES1	0.000	
25	 C42	14.460	54.576	91.411	C.3	1	RES1	0.000	
26	 C43	12.056	53.938	92.022	C.2	1	RES1	0.000	
27	 C44	12.452	53.819	93.512	C.3	1	RES1	0.000	
28	 C45	11.499	55.661	94.920	C.2	1	RES1	0.000	
29	 C46	10.255	56.155	95.545	C.3	1	RES1	0.000	
30	 C47	9.957	57.642	95.604	C.3	1	RES1	0.000	
31	 C48	10.337	56.912	96.878	C.3	1	RES1	0.000	
32	 C49	12.721	52.360	93.976	C.3	1	RES1	0.000	
33	 C50	11.455	51.450	93.895	C.3	1	RES1	0.000	
34	 C51	13.196	52.358	95.421	C.3	1	RES1	0.000	
35	 C52	13.808	51.723	93.105	C.3	1	RES1	0.000	
36	  F1	9.131	55.353	95.432	 F	1	RES1	0.000	
@<TRIPOS>BOND
1 1 13 ar
2 1 16 ar
3 9 28 2
4 10 11 ar
5 10 19 ar
6 11 12 ar
7 12 13 1
8 12 17 ar
9 13 14 ar
10 2 14 ar
11 14 15 1
12 2 16 ar
13 17 18 ar
14 18 19 ar
15 19 20 1
16 3 20 1
17 3 21 1
18 5 21 2
19 21 22 1
20 4 22 1
21 22 23 1
22 23 24 1
23 7 24 1
24 24 25 1
25 4 25 1
26 4 26 1
27 8 26 2
28 26 27 1
29 6 27 1
30 27 32 1
31 6 28 1
32 28 29 1
33 29 30 1
34 29 31 1
35 30 31 1
36 32 33 1
37 32 34 1
38 32 35 1
39 29 36 1
@<TRIPOS>SUBSTRUCTURE
1	RES1	1	GROUP	1 ****	RES
