# created with PyMOL 2.5.2
@<TRIPOS>MOLECULE
BRD7_5NVX_E3ligase
36 39 1                 
SMALL
USER_CHARGES
@<TRIPOS>ATOM
1	  S1	15.829	52.071	82.467	S.2	1	RES1	0.000	
2	  N5	15.052	50.853	80.352	N.2	1	RES1	0.000	
3	  N6	11.328	53.023	88.017	N.pl3	1	RES1	0.000	
4	  N7	12.851	54.270	91.101	N.pl3	1	RES1	0.000	
5	  N8	11.313	54.560	94.357	N.pl3	1	RES1	0.000	
6	  O8	13.003	52.124	89.316	O.2	1	RES1	0.000	
7	  O9	15.797	55.862	89.912	O.3	1	RES1	0.000	
8	 O10	10.706	53.787	91.806	O.2	1	RES1	0.000	
9	 O11	12.464	56.482	94.924	O.2	1	RES1	0.000	
10	 C29	12.546	52.796	85.517	C.2	1	RES1	0.000	
11	 C30	13.340	52.676	84.376	C.2	1	RES1	0.000	
12	 C31	13.451	51.452	83.712	C.2	1	RES1	0.000	
13	 C32	14.277	51.345	82.491	C.2	1	RES1	0.000	
14	 C33	14.036	50.714	81.290	C.2	1	RES1	0.000	
15	 C34	12.819	49.948	80.889	C.3	1	RES1	0.000	
16	 C35	16.021	51.521	80.848	C.2	1	RES1	0.000	
17	 C36	12.712	50.383	84.217	C.2	1	RES1	0.000	
18	 C37	11.922	50.504	85.359	C.2	1	RES1	0.000	
19	 C38	11.828	51.725	86.030	C.2	1	RES1	0.000	
20	 C39	11.009	51.826	87.268	C.3	1	RES1	0.000	
21	 C40	12.299	53.062	88.998	C.2	1	RES1	0.000	
22	 C41	12.454	54.444	89.670	C.3	1	RES1	0.000	
23	 C42	13.575	55.276	89.104	C.3	1	RES1	0.000	
24	 C43	14.805	54.843	89.874	C.3	1	RES1	0.000	
25	 C44	14.254	54.603	91.287	C.3	1	RES1	0.000	
26	 C45	11.896	53.989	92.090	C.2	1	RES1	0.000	
27	 C46	12.385	53.914	93.545	C.3	1	RES1	0.000	
28	 C47	11.448	55.767	94.953	C.2	1	RES1	0.000	
29	 C48	10.240	56.220	95.687	C.3	1	RES1	0.000	
30	 C49	10.391	56.989	97.015	C.3	1	RES1	0.000	
31	 C50	9.856	57.657	95.774	C.3	1	RES1	0.000	
32	 C51	12.712	52.487	94.045	C.3	1	RES1	0.000	
33	 C52	11.495	51.554	94.047	C.3	1	RES1	0.000	
34	 C53	13.263	52.527	95.468	C.3	1	RES1	0.000	
35	 C54	13.780	51.839	93.148	C.3	1	RES1	0.000	
36	  F1	9.172	55.355	95.664	 F	1	RES1	0.000	
@<TRIPOS>BOND
1 1 13 ar
2 1 16 ar
3 8 26 2
4 9 28 2
5 10 11 ar
6 10 19 ar
7 11 12 ar
8 12 13 1
9 12 17 ar
10 13 14 ar
11 2 14 ar
12 14 15 1
13 2 16 ar
14 17 18 ar
15 18 19 ar
16 19 20 1
17 3 20 1
18 3 21 1
19 6 21 2
20 21 22 1
21 4 22 1
22 22 23 1
23 23 24 1
24 7 24 1
25 24 25 1
26 4 25 1
27 4 26 1
28 26 27 1
29 5 27 1
30 27 32 1
31 5 28 1
32 28 29 1
33 29 30 1
34 29 31 1
35 30 31 1
36 32 33 1
37 32 34 1
38 32 35 1
39 29 36 1
@<TRIPOS>SUBSTRUCTURE
1	RES1	1	GROUP	1 ****	RES
