# created with PyMOL 2.5.2
@<TRIPOS>MOLECULE
BRD9_5NVX_E3ligase
36 39 1                 
SMALL
USER_CHARGES
@<TRIPOS>ATOM
1	  S1	15.856	52.090	82.495	S.2	1	RES1	0.000	
2	  N5	15.073	50.874	80.396	N.2	1	RES1	0.000	
3	  N6	11.309	52.972	88.028	N.pl3	1	RES1	0.000	
4	  N7	12.803	54.244	91.078	N.pl3	1	RES1	0.000	
5	  N8	11.340	54.516	94.382	N.pl3	1	RES1	0.000	
6	  O8	12.974	52.064	89.346	O.2	1	RES1	0.000	
7	  O9	15.742	55.912	89.838	O.3	1	RES1	0.000	
8	 O10	10.711	53.762	91.835	O.2	1	RES1	0.000	
9	 O11	12.527	56.440	94.906	O.2	1	RES1	0.000	
10	 C29	12.513	52.791	85.518	C.2	1	RES1	0.000	
11	 C30	13.277	52.700	84.389	C.2	1	RES1	0.000	
12	 C31	13.424	51.483	83.697	C.2	1	RES1	0.000	
13	 C32	14.275	51.393	82.512	C.2	1	RES1	0.000	
14	 C33	14.041	50.760	81.305	C.2	1	RES1	0.000	
15	 C34	12.854	50.028	80.870	C.3	1	RES1	0.000	
16	 C35	16.091	51.548	80.904	C.2	1	RES1	0.000	
17	 C36	12.747	50.348	84.223	C.2	1	RES1	0.000	
18	 C37	11.950	50.479	85.350	C.2	1	RES1	0.000	
19	 C38	11.813	51.668	86.023	C.2	1	RES1	0.000	
20	 C39	11.000	51.782	87.297	C.3	1	RES1	0.000	
21	 C40	12.291	53.016	89.006	C.2	1	RES1	0.000	
22	 C41	12.422	54.419	89.685	C.3	1	RES1	0.000	
23	 C42	13.519	55.266	89.092	C.3	1	RES1	0.000	
24	 C43	14.742	54.859	89.883	C.3	1	RES1	0.000	
25	 C44	14.215	54.615	91.256	C.3	1	RES1	0.000	
26	 C45	11.872	53.961	92.104	C.2	1	RES1	0.000	
27	 C46	12.373	53.906	93.543	C.3	1	RES1	0.000	
28	 C47	11.503	55.776	94.966	C.2	1	RES1	0.000	
29	 C48	10.279	56.262	95.676	C.3	1	RES1	0.000	
30	 C49	9.959	57.738	95.715	C.3	1	RES1	0.000	
31	 C50	10.409	57.039	96.976	C.3	1	RES1	0.000	
32	 C51	12.731	52.465	94.026	C.3	1	RES1	0.000	
33	 C52	11.470	51.591	94.018	C.3	1	RES1	0.000	
34	 C53	13.260	52.497	95.474	C.3	1	RES1	0.000	
35	 C54	13.795	51.757	93.163	C.3	1	RES1	0.000	
36	  F1	9.165	55.411	95.624	 F	1	RES1	0.000	
@<TRIPOS>BOND
1 1 13 ar
2 1 16 ar
3 8 26 2
4 9 28 2
5 10 11 ar
6 10 19 ar
7 11 12 ar
8 12 13 1
9 12 17 ar
10 13 14 ar
11 2 14 ar
12 14 15 1
13 2 16 ar
14 17 18 ar
15 18 19 ar
16 19 20 1
17 3 20 1
18 3 21 1
19 6 21 2
20 21 22 1
21 4 22 1
22 22 23 1
23 23 24 1
24 7 24 1
25 24 25 1
26 4 25 1
27 4 26 1
28 26 27 1
29 5 27 1
30 27 32 1
31 5 28 1
32 28 29 1
33 29 30 1
34 29 31 1
35 30 31 1
36 32 33 1
37 32 34 1
38 32 35 1
39 29 36 1
@<TRIPOS>SUBSTRUCTURE
1	RES1	1	GROUP	1 ****	RES
