# created with PyMOL 2.5.2
@<TRIPOS>MOLECULE
BRD7_5NVX_E3ligase
36 39 1                 
SMALL
USER_CHARGES
@<TRIPOS>ATOM
1	  S1	15.895	51.935	82.517	S.2	1	RES1	0.000	
2	  N5	15.004	50.803	80.378	N.2	1	RES1	0.000	
3	  N6	11.368	53.028	88.042	N.pl3	1	RES1	0.000	
4	  N7	13.039	54.132	91.065	N.pl3	1	RES1	0.000	
5	  N8	11.380	54.507	94.267	N.pl3	1	RES1	0.000	
6	  O8	12.800	51.860	89.428	O.2	1	RES1	0.000	
7	  O9	14.370	56.768	90.488	O.3	1	RES1	0.000	
8	 O10	10.856	53.712	91.671	O.2	1	RES1	0.000	
9	 O11	12.637	56.336	94.935	O.2	1	RES1	0.000	
10	 C29	11.837	50.546	85.322	C.2	1	RES1	0.000	
11	 C30	12.650	50.405	84.193	C.2	1	RES1	0.000	
12	 C31	13.440	51.449	83.735	C.2	1	RES1	0.000	
13	 C32	14.264	51.352	82.519	C.2	1	RES1	0.000	
14	 C33	13.986	50.772	81.293	C.2	1	RES1	0.000	
15	 C34	12.698	50.171	80.837	C.3	1	RES1	0.000	
16	 C35	16.090	51.359	80.915	C.2	1	RES1	0.000	
17	 C36	13.395	52.680	84.446	C.2	1	RES1	0.000	
18	 C37	12.587	52.791	85.578	C.2	1	RES1	0.000	
19	 C38	11.795	51.727	86.020	C.2	1	RES1	0.000	
20	 C39	10.937	51.869	87.270	C.3	1	RES1	0.000	
21	 C40	12.325	52.960	89.035	C.2	1	RES1	0.000	
22	 C41	12.689	54.309	89.649	C.3	1	RES1	0.000	
23	 C42	13.941	54.915	89.012	C.3	1	RES1	0.000	
24	 C43	14.753	55.423	90.186	C.3	1	RES1	0.000	
25	 C44	14.399	54.472	91.318	C.3	1	RES1	0.000	
26	 C45	12.034	53.910	92.014	C.2	1	RES1	0.000	
27	 C46	12.450	53.843	93.501	C.3	1	RES1	0.000	
28	 C47	11.561	55.744	94.894	C.2	1	RES1	0.000	
29	 C48	10.345	56.257	95.545	C.3	1	RES1	0.000	
30	 C49	10.431	57.051	96.864	C.3	1	RES1	0.000	
31	 C50	10.083	57.777	95.593	C.3	1	RES1	0.000	
32	 C51	12.721	52.386	94.030	C.3	1	RES1	0.000	
33	 C52	11.415	51.570	93.970	C.3	1	RES1	0.000	
34	 C53	13.166	52.446	95.488	C.3	1	RES1	0.000	
35	 C54	13.801	51.672	93.195	C.3	1	RES1	0.000	
36	  F1	9.190	55.511	95.410	 F	1	RES1	0.000	
@<TRIPOS>BOND
1 1 13 ar
2 1 16 ar
3 8 26 2
4 9 28 2
5 10 11 ar
6 10 19 ar
7 11 12 ar
8 12 13 1
9 12 17 ar
10 13 14 ar
11 2 14 ar
12 14 15 1
13 2 16 ar
14 17 18 ar
15 18 19 ar
16 19 20 1
17 3 20 1
18 3 21 1
19 6 21 2
20 21 22 1
21 4 22 1
22 22 23 1
23 23 24 1
24 7 24 1
25 24 25 1
26 4 25 1
27 4 26 1
28 26 27 1
29 5 27 1
30 27 32 1
31 5 28 1
32 28 29 1
33 29 30 1
34 29 31 1
35 30 31 1
36 32 33 1
37 32 34 1
38 32 35 1
39 29 36 1
@<TRIPOS>SUBSTRUCTURE
1	RES1	1	GROUP	1 ****	RES
