# created with PyMOL 2.5.2
@<TRIPOS>MOLECULE
CDK6_7BQU_E3ligase
19 21 1                 
SMALL
USER_CHARGES
@<TRIPOS>ATOM
1	  N6	25.433	17.713	13.116	N.2	1	RES1	0.000	
2	  N7	25.068	19.872	16.071	N.pl3	1	RES1	0.000	
3	  O7	27.397	17.229	11.936	O.2	1	RES1	0.000	
4	  O8	26.310	20.255	17.909	O.2	1	RES1	0.000	
5	  O9	23.748	19.611	14.257	O.2	1	RES1	0.000	
6	 O10	23.126	17.705	13.663	O.2	1	RES1	0.000	
7	 C25	25.539	15.503	10.227	C.2	1	RES1	0.000	
8	 C26	24.442	14.845	9.668	C.2	1	RES1	0.000	
9	 C27	23.172	14.955	10.202	C.2	1	RES1	0.000	
10	 C28	22.932	15.796	11.305	C.2	1	RES1	0.000	
11	 C29	24.034	16.444	11.868	C.2	1	RES1	0.000	
12	 C30	25.288	16.308	11.345	C.2	1	RES1	0.000	
13	 C31	26.202	17.124	12.158	C.2	1	RES1	0.000	
14	 C32	25.975	18.622	14.131	C.3	1	RES1	0.000	
15	 C33	26.867	17.968	15.224	C.3	1	RES1	0.000	
16	 C34	27.337	19.021	16.152	C.3	1	RES1	0.000	
17	 C35	26.205	19.753	16.797	C.2	1	RES1	0.000	
18	 C36	24.814	19.376	14.807	C.2	1	RES1	0.000	
19	 C37	24.105	17.351	13.003	C.2	1	RES1	0.000	
@<TRIPOS>BOND
1 6 19 2
2 7 8 ar
3 7 12 ar
4 8 9 ar
5 9 10 ar
6 10 11 ar
7 11 12 ar
8 11 19 ar
9 12 13 ar
10 1 13 ar
11 3 13 2
12 1 14 1
13 14 15 1
14 14 18 1
15 15 16 1
16 16 17 1
17 2 17 1
18 4 17 2
19 2 18 1
20 5 18 2
21 1 19 ar
@<TRIPOS>SUBSTRUCTURE
1	RES1	1	GROUP	1 ****	RES
