# created with PyMOL 2.5.2
@<TRIPOS>MOLECULE
BRD7_5NVX_E3ligase
36 39 1                 
SMALL
USER_CHARGES
@<TRIPOS>ATOM
1	  S1	15.880	51.781	82.414	S.2	1	RES1	0.000	
2	  N5	14.867	50.614	80.340	N.2	1	RES1	0.000	
3	  O5	12.866	52.026	89.397	O.2	1	RES1	0.000	
4	  N6	11.460	53.213	88.004	N.pl3	1	RES1	0.000	
5	  O6	14.469	56.841	90.596	O.3	1	RES1	0.000	
6	  N7	13.083	54.229	91.103	N.pl3	1	RES1	0.000	
7	  O7	10.902	53.806	91.667	O.2	1	RES1	0.000	
8	  N8	11.363	54.498	94.275	N.pl3	1	RES1	0.000	
9	  O8	12.521	56.335	94.935	O.2	1	RES1	0.000	
10	 C26	12.690	52.857	85.544	C.2	1	RES1	0.000	
11	 C27	13.485	52.666	84.433	C.2	1	RES1	0.000	
12	 C28	13.457	51.451	83.715	C.2	1	RES1	0.000	
13	 C29	14.249	51.240	82.520	C.2	1	RES1	0.000	
14	 C30	13.909	50.621	81.289	C.2	1	RES1	0.000	
15	 C31	12.620	49.972	80.951	C.3	1	RES1	0.000	
16	 C32	15.967	51.215	80.812	C.2	1	RES1	0.000	
17	 C33	12.596	50.422	84.191	C.2	1	RES1	0.000	
18	 C34	11.805	50.641	85.322	C.2	1	RES1	0.000	
19	 C35	11.839	51.846	86.023	C.2	1	RES1	0.000	
20	 C36	10.998	52.074	87.250	C.3	1	RES1	0.000	
21	 C37	12.399	53.088	89.030	C.2	1	RES1	0.000	
22	 C38	12.757	54.446	89.696	C.3	1	RES1	0.000	
23	 C39	14.057	55.029	89.078	C.3	1	RES1	0.000	
24	 C40	14.866	55.513	90.284	C.3	1	RES1	0.000	
25	 C41	14.475	54.565	91.399	C.3	1	RES1	0.000	
26	 C42	12.052	53.948	92.025	C.2	1	RES1	0.000	
27	 C43	12.468	53.849	93.531	C.3	1	RES1	0.000	
28	 C44	11.496	55.689	94.906	C.2	1	RES1	0.000	
29	 C45	10.230	56.167	95.565	C.3	1	RES1	0.000	
30	 C46	10.316	56.902	96.883	C.3	1	RES1	0.000	
31	 C47	9.906	57.631	95.618	C.3	1	RES1	0.000	
32	 C48	12.731	52.370	93.957	C.3	1	RES1	0.000	
33	 C49	11.415	51.541	93.872	C.3	1	RES1	0.000	
34	 C50	13.202	52.351	95.443	C.3	1	RES1	0.000	
35	 C51	13.796	51.690	93.101	C.3	1	RES1	0.000	
36	  F1	9.142	55.323	95.453	 F	1	RES1	0.000	
@<TRIPOS>BOND
1 1 13 ar
2 1 16 ar
3 10 11 ar
4 10 19 ar
5 11 12 ar
6 12 13 1
7 12 17 ar
8 13 14 ar
9 2 14 ar
10 14 15 1
11 2 16 ar
12 17 18 ar
13 18 19 ar
14 19 20 1
15 4 20 1
16 3 21 2
17 4 21 1
18 21 22 1
19 6 22 1
20 22 23 1
21 23 24 1
22 5 24 1
23 24 25 1
24 6 25 1
25 6 26 1
26 7 26 2
27 26 27 1
28 8 27 1
29 27 32 1
30 8 28 1
31 9 28 2
32 28 29 1
33 29 30 1
34 29 31 1
35 30 31 1
36 32 33 1
37 32 34 1
38 32 35 1
39 29 36 1
@<TRIPOS>SUBSTRUCTURE
1	RES1	1	GROUP	1 ****	RES
