# created with PyMOL 2.5.2
@<TRIPOS>MOLECULE
BRD7_5NVX_E3ligase
36 39 1                 
SMALL
USER_CHARGES
@<TRIPOS>ATOM
1	  S1	15.866	51.833	82.403	S.2	1	RES1	0.000	
2	  N5	14.958	50.585	80.341	N.2	1	RES1	0.000	
3	  O5	12.883	52.001	89.339	O.2	1	RES1	0.000	
4	  N6	11.446	53.219	88.001	N.pl3	1	RES1	0.000	
5	  O6	14.398	56.830	90.649	O.3	1	RES1	0.000	
6	  N7	13.054	54.188	91.131	N.pl3	1	RES1	0.000	
7	  O7	10.902	53.702	91.687	O.2	1	RES1	0.000	
8	  N8	11.340	54.465	94.295	N.pl3	1	RES1	0.000	
9	  O8	12.558	56.324	94.945	O.2	1	RES1	0.000	
10	 C26	12.684	52.882	85.484	C.2	1	RES1	0.000	
11	 C27	13.447	52.677	84.368	C.2	1	RES1	0.000	
12	 C28	13.436	51.457	83.695	C.2	1	RES1	0.000	
13	 C29	14.249	51.236	82.487	C.2	1	RES1	0.000	
14	 C30	13.952	50.601	81.271	C.2	1	RES1	0.000	
15	 C31	12.648	49.991	80.868	C.3	1	RES1	0.000	
16	 C32	16.018	51.204	80.839	C.2	1	RES1	0.000	
17	 C33	12.580	50.461	84.146	C.2	1	RES1	0.000	
18	 C34	11.798	50.636	85.288	C.2	1	RES1	0.000	
19	 C35	11.810	51.848	85.985	C.2	1	RES1	0.000	
20	 C36	10.988	52.063	87.211	C.3	1	RES1	0.000	
21	 C37	12.395	53.061	89.021	C.2	1	RES1	0.000	
22	 C38	12.730	54.401	89.697	C.3	1	RES1	0.000	
23	 C39	13.985	55.035	89.101	C.3	1	RES1	0.000	
24	 C40	14.809	55.519	90.287	C.3	1	RES1	0.000	
25	 C41	14.427	54.511	91.375	C.3	1	RES1	0.000	
26	 C42	12.037	53.925	92.063	C.2	1	RES1	0.000	
27	 C43	12.419	53.822	93.528	C.3	1	RES1	0.000	
28	 C44	11.532	55.718	94.922	C.2	1	RES1	0.000	
29	 C45	10.272	56.189	95.583	C.3	1	RES1	0.000	
30	 C46	10.338	56.956	96.868	C.3	1	RES1	0.000	
31	 C47	10.004	57.698	95.613	C.3	1	RES1	0.000	
32	 C48	12.726	52.367	94.034	C.3	1	RES1	0.000	
33	 C49	11.458	51.471	93.963	C.3	1	RES1	0.000	
34	 C50	13.216	52.436	95.492	C.3	1	RES1	0.000	
35	 C51	13.832	51.731	93.189	C.3	1	RES1	0.000	
36	  F1	9.135	55.404	95.444	 F	1	RES1	0.000	
@<TRIPOS>BOND
1 1 13 ar
2 1 16 ar
3 10 11 ar
4 10 19 ar
5 11 12 ar
6 12 13 1
7 12 17 ar
8 13 14 ar
9 2 14 ar
10 14 15 1
11 2 16 ar
12 17 18 ar
13 18 19 ar
14 19 20 1
15 4 20 1
16 3 21 2
17 4 21 1
18 21 22 1
19 6 22 1
20 22 23 1
21 23 24 1
22 5 24 1
23 24 25 1
24 6 25 1
25 6 26 1
26 7 26 2
27 26 27 1
28 8 27 1
29 27 32 1
30 8 28 1
31 9 28 2
32 28 29 1
33 29 30 1
34 29 31 1
35 30 31 1
36 32 33 1
37 32 34 1
38 32 35 1
39 29 36 1
@<TRIPOS>SUBSTRUCTURE
1	RES1	1	GROUP	1 ****	RES
