# created with PyMOL 2.5.2
@<TRIPOS>MOLECULE
BRD7_5NVX_E3ligase
36 39 1                 
SMALL
USER_CHARGES
@<TRIPOS>ATOM
1	  S1	15.795	52.101	82.647	S.2	1	RES1	0.000	
2	  N5	15.188	50.909	80.460	N.2	1	RES1	0.000	
3	  O5	12.815	51.952	89.364	O.2	1	RES1	0.000	
4	  N6	11.242	52.951	88.016	N.pl3	1	RES1	0.000	
5	  O6	15.757	55.816	89.703	O.3	1	RES1	0.000	
6	  N7	12.814	54.255	91.077	N.pl3	1	RES1	0.000	
7	  O7	10.719	53.835	91.880	O.2	1	RES1	0.000	
8	  N8	11.418	54.564	94.377	N.pl3	1	RES1	0.000	
9	  O8	12.577	56.474	94.916	O.2	1	RES1	0.000	
10	 C26	12.419	52.791	85.544	C.2	1	RES1	0.000	
11	 C27	13.199	52.680	84.392	C.2	1	RES1	0.000	
12	 C28	13.320	51.470	83.685	C.2	1	RES1	0.000	
13	 C29	14.221	51.376	82.545	C.2	1	RES1	0.000	
14	 C30	14.096	50.789	81.287	C.2	1	RES1	0.000	
15	 C31	12.896	50.135	80.720	C.3	1	RES1	0.000	
16	 C32	16.161	51.558	81.083	C.2	1	RES1	0.000	
17	 C33	12.632	50.382	84.184	C.2	1	RES1	0.000	
18	 C34	11.819	50.458	85.311	C.2	1	RES1	0.000	
19	 C35	11.697	51.665	85.999	C.2	1	RES1	0.000	
20	 C36	10.887	51.767	87.258	C.3	1	RES1	0.000	
21	 C37	12.219	52.960	88.990	C.2	1	RES1	0.000	
22	 C38	12.426	54.327	89.678	C.3	1	RES1	0.000	
23	 C39	13.523	55.108	88.986	C.3	1	RES1	0.000	
24	 C40	14.759	54.793	89.807	C.3	1	RES1	0.000	
25	 C41	14.212	54.713	91.232	C.3	1	RES1	0.000	
26	 C42	11.909	53.982	92.102	C.2	1	RES1	0.000	
27	 C43	12.440	53.929	93.561	C.3	1	RES1	0.000	
28	 C44	11.527	55.796	94.954	C.2	1	RES1	0.000	
29	 C45	10.354	56.259	95.692	C.3	1	RES1	0.000	
30	 C46	10.486	57.064	96.983	C.3	1	RES1	0.000	
31	 C47	9.975	57.715	95.748	C.3	1	RES1	0.000	
32	 C48	12.809	52.493	94.054	C.3	1	RES1	0.000	
33	 C49	11.538	51.664	94.227	C.3	1	RES1	0.000	
34	 C50	13.511	52.559	95.422	C.3	1	RES1	0.000	
35	 C51	13.725	51.735	93.066	C.3	1	RES1	0.000	
36	  F1	9.246	55.414	95.653	 F	1	RES1	0.000	
@<TRIPOS>BOND
1 1 13 ar
2 1 16 ar
3 10 11 ar
4 10 19 ar
5 11 12 ar
6 12 13 1
7 12 17 ar
8 13 14 ar
9 2 14 ar
10 14 15 1
11 2 16 ar
12 17 18 ar
13 18 19 ar
14 19 20 1
15 4 20 1
16 3 21 2
17 4 21 1
18 21 22 1
19 6 22 1
20 22 23 1
21 23 24 1
22 5 24 1
23 24 25 1
24 6 25 1
25 6 26 1
26 7 26 2
27 26 27 1
28 8 27 1
29 27 32 1
30 8 28 1
31 9 28 2
32 28 29 1
33 29 30 1
34 29 31 1
35 30 31 1
36 32 33 1
37 32 34 1
38 32 35 1
39 29 36 1
@<TRIPOS>SUBSTRUCTURE
1	RES1	1	GROUP	1 ****	RES
