# created with PyMOL 2.5.2
@<TRIPOS>MOLECULE
BRD7_5NVX_E3ligase
36 39 1                 
SMALL
USER_CHARGES
@<TRIPOS>ATOM
1	  S1	15.840	51.828	82.424	S.2	1	RES1	0.000	
2	  N5	15.023	50.614	80.352	N.2	1	RES1	0.000	
3	  N6	11.433	53.204	87.979	N.pl3	1	RES1	0.000	
4	  O6	12.882	51.954	89.250	O.2	1	RES1	0.000	
5	  N7	13.037	54.163	91.139	N.pl3	1	RES1	0.000	
6	  O7	14.315	56.848	90.586	O.3	1	RES1	0.000	
7	  N8	11.362	54.486	94.343	N.pl3	1	RES1	0.000	
8	  O8	10.886	53.740	91.753	O.2	1	RES1	0.000	
9	  O9	12.559	56.378	94.962	O.2	1	RES1	0.000	
10	 C28	12.660	52.882	85.479	C.2	1	RES1	0.000	
11	 C29	13.479	52.638	84.344	C.2	1	RES1	0.000	
12	 C30	13.402	51.423	83.635	C.2	1	RES1	0.000	
13	 C31	14.256	51.215	82.469	C.2	1	RES1	0.000	
14	 C32	13.983	50.616	81.223	C.2	1	RES1	0.000	
15	 C33	12.703	49.994	80.767	C.3	1	RES1	0.000	
16	 C34	16.053	51.189	80.841	C.2	1	RES1	0.000	
17	 C35	12.546	50.444	84.110	C.2	1	RES1	0.000	
18	 C36	11.758	50.657	85.243	C.2	1	RES1	0.000	
19	 C37	11.816	51.877	85.933	C.2	1	RES1	0.000	
20	 C38	10.970	52.087	87.175	C.3	1	RES1	0.000	
21	 C39	12.370	53.031	89.016	C.2	1	RES1	0.000	
22	 C40	12.743	54.362	89.725	C.3	1	RES1	0.000	
23	 C41	13.992	54.957	89.107	C.3	1	RES1	0.000	
24	 C42	14.752	55.501	90.301	C.3	1	RES1	0.000	
25	 C43	14.434	54.539	91.418	C.3	1	RES1	0.000	
26	 C44	12.045	53.916	92.072	C.2	1	RES1	0.000	
27	 C45	12.450	53.825	93.571	C.3	1	RES1	0.000	
28	 C46	11.532	55.740	94.958	C.2	1	RES1	0.000	
29	 C47	10.281	56.225	95.607	C.3	1	RES1	0.000	
30	 C48	9.987	57.716	95.622	C.3	1	RES1	0.000	
31	 C49	10.354	56.986	96.905	C.3	1	RES1	0.000	
32	 C50	12.727	52.363	94.077	C.3	1	RES1	0.000	
33	 C51	11.475	51.450	94.014	C.3	1	RES1	0.000	
34	 C52	13.245	52.418	95.519	C.3	1	RES1	0.000	
35	 C53	13.838	51.735	93.191	C.3	1	RES1	0.000	
36	  F1	9.140	55.435	95.490	 F	1	RES1	0.000	
@<TRIPOS>BOND
1 1 13 ar
2 1 16 ar
3 10 11 ar
4 10 19 ar
5 11 12 ar
6 12 13 1
7 12 17 ar
8 13 14 ar
9 2 14 ar
10 14 15 1
11 2 16 ar
12 17 18 ar
13 18 19 ar
14 19 20 1
15 3 20 1
16 3 21 1
17 4 21 2
18 21 22 1
19 5 22 1
20 22 23 1
21 23 24 1
22 6 24 1
23 24 25 1
24 5 25 1
25 5 26 1
26 8 26 2
27 26 27 1
28 7 27 1
29 27 32 1
30 7 28 1
31 9 28 2
32 28 29 1
33 29 30 1
34 29 31 1
35 30 31 1
36 32 33 1
37 32 34 1
38 32 35 1
39 29 36 1
@<TRIPOS>SUBSTRUCTURE
1	RES1	1	GROUP	1 ****	RES
