# created with PyMOL 2.5.2
@<TRIPOS>MOLECULE
BRD7_5NVX_E3ligase
36 39 1                 
SMALL
USER_CHARGES
@<TRIPOS>ATOM
1	  S1	15.858	51.707	82.364	S.2	1	RES1	0.000	
2	  N5	14.860	50.460	80.354	N.2	1	RES1	0.000	
3	  N6	11.500	53.337	87.943	N.pl3	1	RES1	0.000	
4	  O6	12.701	52.096	89.441	O.2	1	RES1	0.000	
5	  N7	13.120	54.262	91.114	N.pl3	1	RES1	0.000	
6	  O7	14.398	56.954	90.522	O.3	1	RES1	0.000	
7	  N8	11.381	54.432	94.295	N.pl3	1	RES1	0.000	
8	  O8	10.970	53.747	91.681	O.2	1	RES1	0.000	
9	  O9	12.544	56.315	94.997	O.2	1	RES1	0.000	
10	 C28	12.723	52.897	85.519	C.2	1	RES1	0.000	
11	 C29	13.516	52.659	84.392	C.2	1	RES1	0.000	
12	 C30	13.411	51.418	83.693	C.2	1	RES1	0.000	
13	 C31	14.217	51.166	82.474	C.2	1	RES1	0.000	
14	 C32	13.848	50.540	81.285	C.2	1	RES1	0.000	
15	 C33	12.520	49.973	80.927	C.3	1	RES1	0.000	
16	 C34	15.934	51.060	80.827	C.2	1	RES1	0.000	
17	 C35	12.536	50.484	84.178	C.2	1	RES1	0.000	
18	 C36	11.738	50.696	85.305	C.2	1	RES1	0.000	
19	 C37	11.839	51.931	85.982	C.2	1	RES1	0.000	
20	 C38	10.967	52.225	87.193	C.3	1	RES1	0.000	
21	 C39	12.380	53.185	88.989	C.2	1	RES1	0.000	
22	 C40	12.800	54.473	89.711	C.3	1	RES1	0.000	
23	 C41	14.093	55.002	89.083	C.3	1	RES1	0.000	
24	 C42	14.835	55.612	90.272	C.3	1	RES1	0.000	
25	 C43	14.476	54.704	91.435	C.3	1	RES1	0.000	
26	 C44	12.115	53.932	92.068	C.2	1	RES1	0.000	
27	 C45	12.475	53.804	93.560	C.3	1	RES1	0.000	
28	 C46	11.521	55.663	94.931	C.2	1	RES1	0.000	
29	 C47	10.272	56.122	95.596	C.3	1	RES1	0.000	
30	 C48	10.315	56.880	96.882	C.3	1	RES1	0.000	
31	 C49	9.953	57.606	95.629	C.3	1	RES1	0.000	
32	 C50	12.777	52.329	94.016	C.3	1	RES1	0.000	
33	 C51	11.473	51.538	93.990	C.3	1	RES1	0.000	
34	 C52	13.312	52.321	95.444	C.3	1	RES1	0.000	
35	 C53	13.796	51.628	93.085	C.3	1	RES1	0.000	
36	  F1	9.161	55.290	95.443	 F	1	RES1	0.000	
@<TRIPOS>BOND
1 1 13 ar
2 1 16 ar
3 10 11 ar
4 10 19 ar
5 11 12 ar
6 12 13 1
7 12 17 ar
8 13 14 ar
9 2 14 ar
10 14 15 1
11 2 16 ar
12 17 18 ar
13 18 19 ar
14 19 20 1
15 3 20 1
16 3 21 1
17 4 21 2
18 21 22 1
19 5 22 1
20 22 23 1
21 23 24 1
22 6 24 1
23 24 25 1
24 5 25 1
25 5 26 1
26 8 26 2
27 26 27 1
28 7 27 1
29 27 32 1
30 7 28 1
31 9 28 2
32 28 29 1
33 29 30 1
34 29 31 1
35 30 31 1
36 32 33 1
37 32 34 1
38 32 35 1
39 29 36 1
@<TRIPOS>SUBSTRUCTURE
1	RES1	1	GROUP	1 ****	RES
