# created with PyMOL 2.5.2
@<TRIPOS>MOLECULE
BRD7_5NVX_E3ligase
36 39 1                 
SMALL
USER_CHARGES
@<TRIPOS>ATOM
1	  S1	15.807	52.095	82.430	S.2	1	RES1	0.000	
2	  N5	15.025	50.799	80.383	N.2	1	RES1	0.000	
3	  N6	11.288	53.020	88.039	N.pl3	1	RES1	0.000	
4	  N7	12.808	54.277	91.068	N.pl3	1	RES1	0.000	
5	  O7	12.975	52.106	89.315	O.2	1	RES1	0.000	
6	  N8	11.363	54.540	94.384	N.pl3	1	RES1	0.000	
7	  O8	15.754	55.863	89.830	O.3	1	RES1	0.000	
8	  O9	10.694	53.805	91.827	O.2	1	RES1	0.000	
9	 O10	12.540	56.443	94.917	O.2	1	RES1	0.000	
10	 C25	12.506	52.798	85.550	C.2	1	RES1	0.000	
11	 C26	13.279	52.678	84.416	C.2	1	RES1	0.000	
12	 C27	13.419	51.491	83.746	C.2	1	RES1	0.000	
13	 C28	14.260	51.379	82.534	C.2	1	RES1	0.000	
14	 C29	14.007	50.724	81.323	C.2	1	RES1	0.000	
15	 C30	12.788	49.984	80.888	C.3	1	RES1	0.000	
16	 C31	16.016	51.485	80.873	C.2	1	RES1	0.000	
17	 C32	12.738	50.377	84.228	C.2	1	RES1	0.000	
18	 C33	11.925	50.466	85.370	C.2	1	RES1	0.000	
19	 C34	11.818	51.700	86.049	C.2	1	RES1	0.000	
20	 C35	10.994	51.803	87.293	C.3	1	RES1	0.000	
21	 C36	12.265	53.061	89.021	C.2	1	RES1	0.000	
22	 C37	12.388	54.429	89.670	C.3	1	RES1	0.000	
23	 C38	13.534	55.262	89.070	C.3	1	RES1	0.000	
24	 C39	14.757	54.842	89.868	C.3	1	RES1	0.000	
25	 C40	14.207	54.590	91.256	C.3	1	RES1	0.000	
26	 C41	11.884	53.991	92.088	C.2	1	RES1	0.000	
27	 C42	12.370	53.927	93.555	C.3	1	RES1	0.000	
28	 C43	11.501	55.783	94.987	C.2	1	RES1	0.000	
29	 C44	10.303	56.251	95.699	C.3	1	RES1	0.000	
30	 C45	9.975	57.718	95.774	C.3	1	RES1	0.000	
31	 C46	10.474	57.035	97.007	C.3	1	RES1	0.000	
32	 C47	12.751	52.473	94.012	C.3	1	RES1	0.000	
33	 C48	11.519	51.535	94.141	C.3	1	RES1	0.000	
34	 C49	13.460	52.487	95.371	C.3	1	RES1	0.000	
35	 C50	13.719	51.836	92.952	C.3	1	RES1	0.000	
36	  F1	9.219	55.400	95.692	 F	1	RES1	0.000	
@<TRIPOS>BOND
1 1 13 ar
2 1 16 ar
3 9 28 2
4 10 11 ar
5 10 19 ar
6 11 12 ar
7 12 13 1
8 12 17 ar
9 13 14 ar
10 2 14 ar
11 14 15 1
12 2 16 ar
13 17 18 ar
14 18 19 ar
15 19 20 1
16 3 20 1
17 3 21 1
18 5 21 2
19 21 22 1
20 4 22 1
21 22 23 1
22 23 24 1
23 7 24 1
24 24 25 1
25 4 25 1
26 4 26 1
27 8 26 2
28 26 27 1
29 6 27 1
30 27 32 1
31 6 28 1
32 28 29 1
33 29 30 1
34 29 31 1
35 30 31 1
36 32 33 1
37 32 34 1
38 32 35 1
39 29 36 1
@<TRIPOS>SUBSTRUCTURE
1	RES1	1	GROUP	1 ****	RES
