# created with PyMOL 2.5.2
@<TRIPOS>MOLECULE
BRD7_5NVX_E3ligase
36 39 1                 
SMALL
USER_CHARGES
@<TRIPOS>ATOM
1	  S1	15.856	51.642	82.467	S.2	1	RES1	0.000	
2	  N5	14.895	50.519	80.345	N.2	1	RES1	0.000	
3	  N6	11.499	53.288	87.977	N.pl3	1	RES1	0.000	
4	  N7	13.153	54.267	91.133	N.pl3	1	RES1	0.000	
5	  O7	12.771	52.022	89.419	O.2	1	RES1	0.000	
6	  N8	11.394	54.457	94.308	N.pl3	1	RES1	0.000	
7	  O8	14.372	56.957	90.417	O.3	1	RES1	0.000	
8	  O9	10.966	53.771	91.688	O.2	1	RES1	0.000	
9	 O10	12.538	56.320	94.970	O.2	1	RES1	0.000	
10	 C25	11.673	50.739	85.268	C.2	1	RES1	0.000	
11	 C26	12.460	50.499	84.143	C.2	1	RES1	0.000	
12	 C27	13.375	51.461	83.686	C.2	1	RES1	0.000	
13	 C28	14.200	51.197	82.506	C.2	1	RES1	0.000	
14	 C29	13.885	50.581	81.303	C.2	1	RES1	0.000	
15	 C30	12.569	49.995	80.922	C.3	1	RES1	0.000	
16	 C31	15.999	51.031	80.873	C.2	1	RES1	0.000	
17	 C32	13.460	52.662	84.374	C.2	1	RES1	0.000	
18	 C33	12.680	52.909	85.478	C.2	1	RES1	0.000	
19	 C34	11.765	51.958	85.933	C.2	1	RES1	0.000	
20	 C35	10.969	52.181	87.206	C.3	1	RES1	0.000	
21	 C36	12.412	53.121	88.998	C.2	1	RES1	0.000	
22	 C37	12.818	54.423	89.728	C.3	1	RES1	0.000	
23	 C38	14.101	54.959	89.100	C.3	1	RES1	0.000	
24	 C39	14.834	55.602	90.227	C.3	1	RES1	0.000	
25	 C40	14.463	54.719	91.438	C.3	1	RES1	0.000	
26	 C41	12.137	53.933	92.067	C.2	1	RES1	0.000	
27	 C42	12.522	53.805	93.566	C.3	1	RES1	0.000	
28	 C43	11.527	55.678	94.932	C.2	1	RES1	0.000	
29	 C44	10.268	56.135	95.574	C.3	1	RES1	0.000	
30	 C45	10.311	56.887	96.884	C.3	1	RES1	0.000	
31	 C46	9.938	57.605	95.624	C.3	1	RES1	0.000	
32	 C47	12.779	52.361	94.022	C.3	1	RES1	0.000	
33	 C48	11.460	51.567	94.043	C.3	1	RES1	0.000	
34	 C49	13.351	52.337	95.429	C.3	1	RES1	0.000	
35	 C50	13.762	51.574	93.101	C.3	1	RES1	0.000	
36	  F1	9.165	55.281	95.461	 F	1	RES1	0.000	
@<TRIPOS>BOND
1 1 13 ar
2 1 16 ar
3 9 28 2
4 10 11 ar
5 10 19 ar
6 11 12 ar
7 12 13 1
8 12 17 ar
9 13 14 ar
10 2 14 ar
11 14 15 1
12 2 16 ar
13 17 18 ar
14 18 19 ar
15 19 20 1
16 3 20 1
17 3 21 1
18 5 21 2
19 21 22 1
20 4 22 1
21 22 23 1
22 23 24 1
23 7 24 1
24 24 25 1
25 4 25 1
26 4 26 1
27 8 26 2
28 26 27 1
29 6 27 1
30 27 32 1
31 6 28 1
32 28 29 1
33 29 30 1
34 29 31 1
35 30 31 1
36 32 33 1
37 32 34 1
38 32 35 1
39 29 36 1
@<TRIPOS>SUBSTRUCTURE
1	RES1	1	GROUP	1 ****	RES
