# created with PyMOL 2.5.2
@<TRIPOS>MOLECULE
BRD7_5NVX_E3ligase
36 39 1                 
SMALL
USER_CHARGES
@<TRIPOS>ATOM
1	  S1	15.862	51.738	82.361	S.2	1	RES1	0.000	
2	  N5	14.925	50.474	80.340	N.2	1	RES1	0.000	
3	  N6	11.522	53.292	87.979	N.pl3	1	RES1	0.000	
4	  N7	13.099	54.211	91.149	N.pl3	1	RES1	0.000	
5	  N8	11.371	54.482	94.311	N.pl3	1	RES1	0.000	
6	  O8	12.866	51.999	89.356	O.2	1	RES1	0.000	
7	  O9	14.369	56.913	90.596	O.3	1	RES1	0.000	
8	 O10	10.924	53.754	91.696	O.2	1	RES1	0.000	
9	 O11	12.495	56.348	94.939	O.2	1	RES1	0.000	
10	 C27	12.720	52.913	85.465	C.2	1	RES1	0.000	
11	 C28	13.493	52.675	84.329	C.2	1	RES1	0.000	
12	 C29	13.448	51.445	83.647	C.2	1	RES1	0.000	
13	 C30	14.228	51.183	82.430	C.2	1	RES1	0.000	
14	 C31	13.907	50.557	81.267	C.2	1	RES1	0.000	
15	 C32	12.599	49.956	80.871	C.3	1	RES1	0.000	
16	 C33	15.984	51.046	80.813	C.2	1	RES1	0.000	
17	 C34	12.553	50.454	84.145	C.2	1	RES1	0.000	
18	 C35	11.778	50.718	85.294	C.2	1	RES1	0.000	
19	 C36	11.843	51.951	85.938	C.2	1	RES1	0.000	
20	 C37	11.021	52.185	87.179	C.3	1	RES1	0.000	
21	 C38	12.442	53.108	89.020	C.2	1	RES1	0.000	
22	 C39	12.819	54.424	89.729	C.3	1	RES1	0.000	
23	 C40	14.113	55.031	89.140	C.3	1	RES1	0.000	
24	 C41	14.816	55.579	90.313	C.3	1	RES1	0.000	
25	 C42	14.445	54.642	91.445	C.3	1	RES1	0.000	
26	 C43	12.079	53.935	92.034	C.2	1	RES1	0.000	
27	 C44	12.464	53.839	93.561	C.3	1	RES1	0.000	
28	 C45	11.475	55.699	94.937	C.2	1	RES1	0.000	
29	 C46	10.223	56.139	95.629	C.3	1	RES1	0.000	
30	 C47	10.314	56.893	96.928	C.3	1	RES1	0.000	
31	 C48	9.858	57.599	95.679	C.3	1	RES1	0.000	
32	 C49	12.710	52.377	94.012	C.3	1	RES1	0.000	
33	 C50	11.437	51.493	93.945	C.3	1	RES1	0.000	
34	 C51	13.192	52.382	95.467	C.3	1	RES1	0.000	
35	 C52	13.806	51.730	93.150	C.3	1	RES1	0.000	
36	  F1	9.131	55.283	95.518	 F	1	RES1	0.000	
@<TRIPOS>BOND
1 1 13 ar
2 1 16 ar
3 8 26 2
4 9 28 2
5 10 11 ar
6 10 19 ar
7 11 12 ar
8 12 13 1
9 12 17 ar
10 13 14 ar
11 2 14 ar
12 14 15 1
13 2 16 ar
14 17 18 ar
15 18 19 ar
16 19 20 1
17 3 20 1
18 3 21 1
19 6 21 2
20 21 22 1
21 4 22 1
22 22 23 1
23 23 24 1
24 7 24 1
25 24 25 1
26 4 25 1
27 4 26 1
28 26 27 1
29 5 27 1
30 27 32 1
31 5 28 1
32 28 29 1
33 29 30 1
34 29 31 1
35 30 31 1
36 32 33 1
37 32 34 1
38 32 35 1
39 29 36 1
@<TRIPOS>SUBSTRUCTURE
1	RES1	1	GROUP	1 ****	RES
