# created with PyMOL 2.5.2
@<TRIPOS>MOLECULE
BRD7_5NVX_E3ligase
36 39 1                 
SMALL
USER_CHARGES
@<TRIPOS>ATOM
1	  S1	15.829	52.125	82.577	S.2	1	RES1	0.000	
2	  N5	15.118	50.922	80.420	N.2	1	RES1	0.000	
3	  N6	11.233	52.936	88.006	N.pl3	1	RES1	0.000	
4	  N7	12.849	54.257	91.089	N.pl3	1	RES1	0.000	
5	  N8	11.393	54.555	94.379	N.pl3	1	RES1	0.000	
6	  O8	12.844	51.992	89.315	O.2	1	RES1	0.000	
7	  O9	15.764	55.795	89.709	O.3	1	RES1	0.000	
8	 O10	10.731	53.827	91.858	O.2	1	RES1	0.000	
9	 O11	12.573	56.450	94.957	O.2	1	RES1	0.000	
10	 C27	12.447	52.785	85.560	C.2	1	RES1	0.000	
11	 C28	13.262	52.702	84.426	C.2	1	RES1	0.000	
12	 C29	13.370	51.502	83.706	C.2	1	RES1	0.000	
13	 C30	14.241	51.393	82.529	C.2	1	RES1	0.000	
14	 C31	14.052	50.810	81.289	C.2	1	RES1	0.000	
15	 C32	12.863	50.020	80.830	C.3	1	RES1	0.000	
16	 C33	16.085	51.602	80.967	C.2	1	RES1	0.000	
17	 C34	12.666	50.390	84.170	C.2	1	RES1	0.000	
18	 C35	11.843	50.455	85.316	C.2	1	RES1	0.000	
19	 C36	11.738	51.636	86.008	C.2	1	RES1	0.000	
20	 C37	10.903	51.732	87.257	C.3	1	RES1	0.000	
21	 C38	12.213	52.965	88.983	C.2	1	RES1	0.000	
22	 C39	12.404	54.317	89.677	C.3	1	RES1	0.000	
23	 C40	13.549	55.079	89.018	C.3	1	RES1	0.000	
24	 C41	14.782	54.777	89.830	C.3	1	RES1	0.000	
25	 C42	14.207	54.681	91.227	C.3	1	RES1	0.000	
26	 C43	11.921	53.988	92.099	C.2	1	RES1	0.000	
27	 C44	12.408	53.925	93.554	C.3	1	RES1	0.000	
28	 C45	11.529	55.799	94.975	C.2	1	RES1	0.000	
29	 C46	10.317	56.280	95.699	C.3	1	RES1	0.000	
30	 C47	10.007	57.758	95.743	C.3	1	RES1	0.000	
31	 C48	10.447	57.071	96.970	C.3	1	RES1	0.000	
32	 C49	12.789	52.509	94.055	C.3	1	RES1	0.000	
33	 C50	11.529	51.644	94.215	C.3	1	RES1	0.000	
34	 C51	13.450	52.564	95.457	C.3	1	RES1	0.000	
35	 C52	13.756	51.767	93.086	C.3	1	RES1	0.000	
36	  F1	9.217	55.427	95.642	 F	1	RES1	0.000	
@<TRIPOS>BOND
1 1 13 ar
2 1 16 ar
3 8 26 2
4 9 28 2
5 10 11 ar
6 10 19 ar
7 11 12 ar
8 12 13 1
9 12 17 ar
10 13 14 ar
11 2 14 ar
12 14 15 1
13 2 16 ar
14 17 18 ar
15 18 19 ar
16 19 20 1
17 3 20 1
18 3 21 1
19 6 21 2
20 21 22 1
21 4 22 1
22 22 23 1
23 23 24 1
24 7 24 1
25 24 25 1
26 4 25 1
27 4 26 1
28 26 27 1
29 5 27 1
30 27 32 1
31 5 28 1
32 28 29 1
33 29 30 1
34 29 31 1
35 30 31 1
36 32 33 1
37 32 34 1
38 32 35 1
39 29 36 1
@<TRIPOS>SUBSTRUCTURE
1	RES1	1	GROUP	1 ****	RES
