# created with PyMOL 2.5.2
@<TRIPOS>MOLECULE
BRD7_5NVX_E3ligase
36 39 1                 
SMALL
USER_CHARGES
@<TRIPOS>ATOM
1	  S1	15.859	52.146	82.408	S.2	1	RES1	0.000	
2	  N5	15.010	50.906	80.325	N.2	1	RES1	0.000	
3	  N6	11.298	52.935	88.052	N.pl3	1	RES1	0.000	
4	  N7	12.806	54.253	91.082	N.pl3	1	RES1	0.000	
5	  N8	11.302	54.592	94.350	N.pl3	1	RES1	0.000	
6	  O9	12.971	52.012	89.318	O.2	1	RES1	0.000	
7	 O10	15.787	55.746	89.784	O.3	1	RES1	0.000	
8	 O11	10.687	53.826	91.833	O.2	1	RES1	0.000	
9	 O12	12.449	56.500	94.907	O.2	1	RES1	0.000	
10	 C29	12.036	50.452	85.370	C.2	1	RES1	0.000	
11	 C30	12.815	50.356	84.206	C.2	1	RES1	0.000	
12	 C31	13.490	51.489	83.751	C.2	1	RES1	0.000	
13	 C32	14.288	51.387	82.491	C.2	1	RES1	0.000	
14	 C33	14.007	50.797	81.279	C.2	1	RES1	0.000	
15	 C34	12.769	50.110	80.878	C.3	1	RES1	0.000	
16	 C35	16.012	51.578	80.811	C.2	1	RES1	0.000	
17	 C36	13.352	52.718	84.434	C.2	1	RES1	0.000	
18	 C37	12.566	52.769	85.591	C.2	1	RES1	0.000	
19	 C38	11.896	51.650	86.079	C.2	1	RES1	0.000	
20	 C39	11.038	51.730	87.314	C.3	1	RES1	0.000	
21	 C40	12.285	52.968	89.052	C.2	1	RES1	0.000	
22	 C41	12.426	54.357	89.668	C.3	1	RES1	0.000	
23	 C42	13.551	55.140	89.029	C.3	1	RES1	0.000	
24	 C43	14.758	54.746	89.851	C.3	1	RES1	0.000	
25	 C44	14.222	54.598	91.265	C.3	1	RES1	0.000	
26	 C45	11.879	54.000	92.107	C.2	1	RES1	0.000	
27	 C46	12.364	53.933	93.553	C.3	1	RES1	0.000	
28	 C47	11.478	55.813	94.965	C.2	1	RES1	0.000	
29	 C48	10.270	56.269	95.702	C.3	1	RES1	0.000	
30	 C49	10.414	57.018	96.997	C.3	1	RES1	0.000	
31	 C50	9.892	57.737	95.762	C.3	1	RES1	0.000	
32	 C51	12.701	52.497	94.053	C.3	1	RES1	0.000	
33	 C52	11.471	51.602	94.067	C.3	1	RES1	0.000	
34	 C53	13.261	52.560	95.485	C.3	1	RES1	0.000	
35	 C54	13.776	51.848	93.160	C.3	1	RES1	0.000	
36	  F1	9.142	55.413	95.637	 F	1	RES1	0.000	
@<TRIPOS>BOND
1 1 13 ar
2 1 16 ar
3 7 24 1
4 8 26 2
5 9 28 2
6 10 11 ar
7 10 19 ar
8 11 12 ar
9 12 13 1
10 12 17 ar
11 13 14 ar
12 2 14 ar
13 14 15 1
14 2 16 ar
15 17 18 ar
16 18 19 ar
17 19 20 1
18 3 20 1
19 3 21 1
20 6 21 2
21 21 22 1
22 4 22 1
23 22 23 1
24 23 24 1
25 24 25 1
26 4 25 1
27 4 26 1
28 26 27 1
29 5 27 1
30 27 32 1
31 5 28 1
32 28 29 1
33 29 30 1
34 29 31 1
35 30 31 1
36 32 33 1
37 32 34 1
38 32 35 1
39 29 36 1
@<TRIPOS>SUBSTRUCTURE
1	RES1	1	GROUP	1 ****	RES
