# created with PyMOL 2.5.2
@<TRIPOS>MOLECULE
CDK6_7BQU_E3ligase
19 21 1                 
SMALL
USER_CHARGES
@<TRIPOS>ATOM
1	  N6	25.414	17.692	13.139	N.2	1	RES1	0.000	
2	  N7	25.085	19.873	16.084	N.pl3	1	RES1	0.000	
3	  O7	27.405	17.207	11.958	O.2	1	RES1	0.000	
4	  O8	26.367	20.305	17.902	O.2	1	RES1	0.000	
5	  O9	23.731	19.585	14.277	O.2	1	RES1	0.000	
6	 O10	23.121	17.689	13.636	O.2	1	RES1	0.000	
7	 C25	25.563	15.503	10.252	C.2	1	RES1	0.000	
8	 C26	24.477	14.835	9.664	C.2	1	RES1	0.000	
9	 C27	23.155	14.980	10.174	C.2	1	RES1	0.000	
10	 C28	22.925	15.781	11.278	C.2	1	RES1	0.000	
11	 C29	24.026	16.446	11.838	C.2	1	RES1	0.000	
12	 C30	25.290	16.315	11.360	C.2	1	RES1	0.000	
13	 C31	26.181	17.093	12.145	C.2	1	RES1	0.000	
14	 C32	25.950	18.635	14.151	C.3	1	RES1	0.000	
15	 C33	26.844	17.967	15.178	C.3	1	RES1	0.000	
16	 C34	27.366	19.039	16.141	C.3	1	RES1	0.000	
17	 C35	26.232	19.779	16.827	C.2	1	RES1	0.000	
18	 C36	24.779	19.370	14.822	C.2	1	RES1	0.000	
19	 C37	24.083	17.358	13.013	C.2	1	RES1	0.000	
@<TRIPOS>BOND
1 6 19 2
2 7 8 ar
3 7 12 ar
4 8 9 ar
5 9 10 ar
6 10 11 ar
7 11 12 ar
8 11 19 ar
9 12 13 ar
10 1 13 ar
11 3 13 2
12 1 14 1
13 14 15 1
14 14 18 1
15 15 16 1
16 16 17 1
17 2 17 1
18 4 17 2
19 2 18 1
20 5 18 2
21 1 19 ar
@<TRIPOS>SUBSTRUCTURE
1	RES1	1	GROUP	1 ****	RES
