# created with PyMOL 2.5.2
@<TRIPOS>MOLECULE
BRD7_5NVX_E3ligase
36 39 1                 
SMALL
USER_CHARGES
@<TRIPOS>ATOM
1	  S1	15.829	51.742	82.498	S.2	1	RES1	0.000	
2	  N5	14.942	50.535	80.375	N.2	1	RES1	0.000	
3	  N6	11.485	53.290	87.973	N.pl3	1	RES1	0.000	
4	  N7	13.144	54.242	91.145	N.pl3	1	RES1	0.000	
5	  N8	11.417	54.458	94.293	N.pl3	1	RES1	0.000	
6	  O9	12.774	52.009	89.384	O.2	1	RES1	0.000	
7	 O10	14.377	56.922	90.360	O.3	1	RES1	0.000	
8	 O11	10.992	53.739	91.709	O.2	1	RES1	0.000	
9	 O12	12.583	56.344	94.985	O.2	1	RES1	0.000	
10	 C29	12.645	52.933	85.447	C.2	1	RES1	0.000	
11	 C30	13.415	52.673	84.356	C.2	1	RES1	0.000	
12	 C31	13.356	51.430	83.690	C.2	1	RES1	0.000	
13	 C32	14.191	51.183	82.494	C.2	1	RES1	0.000	
14	 C33	13.908	50.567	81.285	C.2	1	RES1	0.000	
15	 C34	12.631	49.918	80.878	C.3	1	RES1	0.000	
16	 C35	16.026	51.130	80.914	C.2	1	RES1	0.000	
17	 C36	12.468	50.480	84.166	C.2	1	RES1	0.000	
18	 C37	11.655	50.748	85.284	C.2	1	RES1	0.000	
19	 C38	11.730	51.968	85.937	C.2	1	RES1	0.000	
20	 C39	10.942	52.213	87.171	C.3	1	RES1	0.000	
21	 C40	12.381	53.107	88.986	C.2	1	RES1	0.000	
22	 C41	12.811	54.399	89.715	C.3	1	RES1	0.000	
23	 C42	14.106	54.885	89.058	C.3	1	RES1	0.000	
24	 C43	14.837	55.575	90.203	C.3	1	RES1	0.000	
25	 C44	14.460	54.764	91.426	C.3	1	RES1	0.000	
26	 C45	12.143	53.931	92.066	C.2	1	RES1	0.000	
27	 C46	12.535	53.811	93.557	C.3	1	RES1	0.000	
28	 C47	11.556	55.696	94.911	C.2	1	RES1	0.000	
29	 C48	10.292	56.145	95.581	C.3	1	RES1	0.000	
30	 C49	10.335	56.903	96.888	C.3	1	RES1	0.000	
31	 C50	9.946	57.611	95.618	C.3	1	RES1	0.000	
32	 C51	12.761	52.333	94.047	C.3	1	RES1	0.000	
33	 C52	11.394	51.603	94.127	C.3	1	RES1	0.000	
34	 C53	13.357	52.342	95.482	C.3	1	RES1	0.000	
35	 C54	13.713	51.526	93.119	C.3	1	RES1	0.000	
36	  F1	9.193	55.282	95.472	 F	1	RES1	0.000	
@<TRIPOS>BOND
1 1 13 ar
2 1 16 ar
3 7 24 1
4 8 26 2
5 9 28 2
6 10 11 ar
7 10 19 ar
8 11 12 ar
9 12 13 1
10 12 17 ar
11 13 14 ar
12 2 14 ar
13 14 15 1
14 2 16 ar
15 17 18 ar
16 18 19 ar
17 19 20 1
18 3 20 1
19 3 21 1
20 6 21 2
21 21 22 1
22 4 22 1
23 22 23 1
24 23 24 1
25 24 25 1
26 4 25 1
27 4 26 1
28 26 27 1
29 5 27 1
30 27 32 1
31 5 28 1
32 28 29 1
33 29 30 1
34 29 31 1
35 30 31 1
36 32 33 1
37 32 34 1
38 32 35 1
39 29 36 1
@<TRIPOS>SUBSTRUCTURE
1	RES1	1	GROUP	1 ****	RES
