# created with PyMOL 2.5.2
@<TRIPOS>MOLECULE
BRD7_5NVX_E3ligase
36 39 1                 
SMALL
USER_CHARGES
@<TRIPOS>ATOM
1	  S1	15.834	51.691	82.465	S.2	1	RES1	0.000	
2	  N5	14.908	50.495	80.362	N.2	1	RES1	0.000	
3	  N6	11.527	53.320	87.975	N.pl3	1	RES1	0.000	
4	  O6	12.720	52.031	89.429	O.2	1	RES1	0.000	
5	  N7	13.150	54.242	91.141	N.pl3	1	RES1	0.000	
6	  O7	14.320	56.943	90.407	O.3	1	RES1	0.000	
7	  N8	11.404	54.437	94.269	N.pl3	1	RES1	0.000	
8	  O8	11.017	53.695	91.694	O.2	1	RES1	0.000	
9	  O9	12.552	56.329	94.951	O.2	1	RES1	0.000	
10	 C26	11.658	50.745	85.272	C.2	1	RES1	0.000	
11	 C27	12.444	50.504	84.139	C.2	1	RES1	0.000	
12	 C28	13.346	51.452	83.643	C.2	1	RES1	0.000	
13	 C29	14.190	51.192	82.488	C.2	1	RES1	0.000	
14	 C30	13.888	50.571	81.279	C.2	1	RES1	0.000	
15	 C31	12.593	49.915	80.894	C.3	1	RES1	0.000	
16	 C32	16.005	51.048	80.861	C.2	1	RES1	0.000	
17	 C33	13.459	52.679	84.376	C.2	1	RES1	0.000	
18	 C34	12.686	52.920	85.500	C.2	1	RES1	0.000	
19	 C35	11.781	51.973	85.964	C.2	1	RES1	0.000	
20	 C36	10.960	52.223	87.187	C.3	1	RES1	0.000	
21	 C37	12.416	53.115	88.998	C.2	1	RES1	0.000	
22	 C38	12.839	54.414	89.731	C.3	1	RES1	0.000	
23	 C39	14.128	54.947	89.104	C.3	1	RES1	0.000	
24	 C40	14.856	55.638	90.244	C.3	1	RES1	0.000	
25	 C41	14.469	54.820	91.436	C.3	1	RES1	0.000	
26	 C42	12.147	53.930	92.058	C.2	1	RES1	0.000	
27	 C43	12.517	53.785	93.564	C.3	1	RES1	0.000	
28	 C44	11.522	55.651	94.904	C.2	1	RES1	0.000	
29	 C45	10.273	56.139	95.574	C.3	1	RES1	0.000	
30	 C46	9.936	57.614	95.640	C.3	1	RES1	0.000	
31	 C47	10.344	56.892	96.876	C.3	1	RES1	0.000	
32	 C48	12.760	52.333	94.049	C.3	1	RES1	0.000	
33	 C49	11.424	51.546	94.053	C.3	1	RES1	0.000	
34	 C50	13.337	52.347	95.481	C.3	1	RES1	0.000	
35	 C51	13.740	51.558	93.142	C.3	1	RES1	0.000	
36	  F1	9.177	55.295	95.438	 F	1	RES1	0.000	
@<TRIPOS>BOND
1 1 13 ar
2 1 16 ar
3 10 11 ar
4 10 19 ar
5 11 12 ar
6 12 13 1
7 12 17 ar
8 13 14 ar
9 2 14 ar
10 14 15 1
11 2 16 ar
12 17 18 ar
13 18 19 ar
14 19 20 1
15 3 20 1
16 3 21 1
17 4 21 2
18 21 22 1
19 5 22 1
20 22 23 1
21 23 24 1
22 6 24 1
23 24 25 1
24 5 25 1
25 5 26 1
26 8 26 2
27 26 27 1
28 7 27 1
29 27 32 1
30 7 28 1
31 9 28 2
32 28 29 1
33 29 30 1
34 29 31 1
35 30 31 1
36 32 33 1
37 32 34 1
38 32 35 1
39 29 36 1
@<TRIPOS>SUBSTRUCTURE
1	RES1	1	GROUP	1 ****	RES
