# created with PyMOL 2.5.2
@<TRIPOS>MOLECULE
BRD7_5NVX_E3ligase
36 39 1                 
SMALL
USER_CHARGES
@<TRIPOS>ATOM
1	  S1	15.855	52.041	82.541	S.2	1	RES1	0.000	
2	  N5	15.095	50.861	80.403	N.2	1	RES1	0.000	
3	  N6	11.253	52.935	88.055	N.pl3	1	RES1	0.000	
4	  O6	12.834	51.989	89.410	O.2	1	RES1	0.000	
5	  N7	12.837	54.267	91.091	N.pl3	1	RES1	0.000	
6	  O7	15.714	55.864	89.719	O.3	1	RES1	0.000	
7	  N8	11.395	54.552	94.378	N.pl3	1	RES1	0.000	
8	  O8	10.711	53.810	91.860	O.2	1	RES1	0.000	
9	  O9	12.547	56.476	94.906	O.2	1	RES1	0.000	
10	 C26	11.800	50.490	85.277	C.2	1	RES1	0.000	
11	 C27	12.611	50.403	84.137	C.2	1	RES1	0.000	
12	 C28	13.391	51.465	83.692	C.2	1	RES1	0.000	
13	 C29	14.257	51.361	82.520	C.2	1	RES1	0.000	
14	 C30	14.053	50.777	81.284	C.2	1	RES1	0.000	
15	 C31	12.793	50.138	80.791	C.3	1	RES1	0.000	
16	 C32	16.095	51.514	80.971	C.2	1	RES1	0.000	
17	 C33	13.306	52.673	84.433	C.2	1	RES1	0.000	
18	 C34	12.502	52.783	85.570	C.2	1	RES1	0.000	
19	 C35	11.752	51.711	86.009	C.2	1	RES1	0.000	
20	 C36	10.946	51.777	87.283	C.3	1	RES1	0.000	
21	 C37	12.226	52.969	89.015	C.2	1	RES1	0.000	
22	 C38	12.423	54.338	89.691	C.3	1	RES1	0.000	
23	 C39	13.536	55.114	89.016	C.3	1	RES1	0.000	
24	 C40	14.779	54.847	89.834	C.3	1	RES1	0.000	
25	 C41	14.229	54.718	91.255	C.3	1	RES1	0.000	
26	 C42	11.929	53.989	92.111	C.2	1	RES1	0.000	
27	 C43	12.422	53.918	93.569	C.3	1	RES1	0.000	
28	 C44	11.529	55.786	94.972	C.2	1	RES1	0.000	
29	 C45	10.299	56.265	95.697	C.3	1	RES1	0.000	
30	 C46	10.422	57.053	96.999	C.3	1	RES1	0.000	
31	 C47	9.964	57.723	95.744	C.3	1	RES1	0.000	
32	 C48	12.811	52.489	94.062	C.3	1	RES1	0.000	
33	 C49	11.554	51.624	94.185	C.3	1	RES1	0.000	
34	 C50	13.483	52.551	95.436	C.3	1	RES1	0.000	
35	 C51	13.775	51.771	93.078	C.3	1	RES1	0.000	
36	  F1	9.202	55.415	95.645	 F	1	RES1	0.000	
@<TRIPOS>BOND
1 1 13 ar
2 1 16 ar
3 10 11 ar
4 10 19 ar
5 11 12 ar
6 12 13 1
7 12 17 ar
8 13 14 ar
9 2 14 ar
10 14 15 1
11 2 16 ar
12 17 18 ar
13 18 19 ar
14 19 20 1
15 3 20 1
16 3 21 1
17 4 21 2
18 21 22 1
19 5 22 1
20 22 23 1
21 23 24 1
22 6 24 1
23 24 25 1
24 5 25 1
25 5 26 1
26 8 26 2
27 26 27 1
28 7 27 1
29 27 32 1
30 7 28 1
31 9 28 2
32 28 29 1
33 29 30 1
34 29 31 1
35 30 31 1
36 32 33 1
37 32 34 1
38 32 35 1
39 29 36 1
@<TRIPOS>SUBSTRUCTURE
1	RES1	1	GROUP	1 ****	RES
