# created with PyMOL 2.5.2
@<TRIPOS>MOLECULE
BRD7_5NVX_E3ligase
36 39 1                 
SMALL
USER_CHARGES
@<TRIPOS>ATOM
1	  S1	15.923	51.981	82.324	S.2	1	RES1	0.000	
2	  N5	15.115	50.698	80.246	N.2	1	RES1	0.000	
3	  N6	11.361	53.048	87.864	N.pl3	1	RES1	0.000	
4	  N7	12.668	54.281	91.124	N.pl3	1	RES1	0.000	
5	  O7	12.964	52.167	89.263	O.2	1	RES1	0.000	
6	  N8	11.270	54.605	94.406	N.pl3	1	RES1	0.000	
7	  O8	15.754	55.805	90.054	O.3	1	RES1	0.000	
8	  O9	10.600	53.825	91.924	O.2	1	RES1	0.000	
9	 O10	12.325	56.610	94.848	O.2	1	RES1	0.000	
10	 C28	12.034	50.475	85.251	C.2	1	RES1	0.000	
11	 C29	12.828	50.359	84.113	C.2	1	RES1	0.000	
12	 C30	13.533	51.441	83.603	C.2	1	RES1	0.000	
13	 C31	14.346	51.297	82.385	C.2	1	RES1	0.000	
14	 C32	14.088	50.670	81.184	C.2	1	RES1	0.000	
15	 C33	12.833	49.989	80.769	C.3	1	RES1	0.000	
16	 C34	16.144	51.373	80.746	C.2	1	RES1	0.000	
17	 C35	13.426	52.692	84.240	C.2	1	RES1	0.000	
18	 C36	12.609	52.815	85.378	C.2	1	RES1	0.000	
19	 C37	11.944	51.698	85.914	C.2	1	RES1	0.000	
20	 C38	11.078	51.834	87.145	C.3	1	RES1	0.000	
21	 C39	12.275	53.128	88.917	C.2	1	RES1	0.000	
22	 C40	12.373	54.474	89.680	C.3	1	RES1	0.000	
23	 C41	13.555	55.256	89.158	C.3	1	RES1	0.000	
24	 C42	14.726	54.795	90.012	C.3	1	RES1	0.000	
25	 C43	14.080	54.574	91.395	C.3	1	RES1	0.000	
26	 C44	11.789	54.011	92.162	C.2	1	RES1	0.000	
27	 C45	12.321	53.978	93.585	C.3	1	RES1	0.000	
28	 C46	11.391	55.867	94.998	C.2	1	RES1	0.000	
29	 C47	10.251	56.227	95.908	C.3	1	RES1	0.000	
30	 C48	10.521	56.984	97.166	C.3	1	RES1	0.000	
31	 C49	9.778	57.620	96.027	C.3	1	RES1	0.000	
32	 C50	12.717	52.535	94.098	C.3	1	RES1	0.000	
33	 C51	11.511	51.562	94.064	C.3	1	RES1	0.000	
34	 C52	13.252	52.598	95.522	C.3	1	RES1	0.000	
35	 C53	13.801	51.945	93.196	C.3	1	RES1	0.000	
36	  F1	9.232	55.250	96.004	 F	1	RES1	0.000	
@<TRIPOS>BOND
1 1 13 ar
2 1 16 ar
3 9 28 2
4 10 11 ar
5 10 19 ar
6 11 12 ar
7 12 13 1
8 12 17 ar
9 13 14 ar
10 2 14 ar
11 14 15 1
12 2 16 ar
13 17 18 ar
14 18 19 ar
15 19 20 1
16 3 20 1
17 3 21 1
18 5 21 2
19 21 22 1
20 4 22 1
21 22 23 1
22 23 24 1
23 7 24 1
24 24 25 1
25 4 25 1
26 4 26 1
27 8 26 2
28 26 27 1
29 6 27 1
30 27 32 1
31 6 28 1
32 28 29 1
33 29 30 1
34 29 31 1
35 30 31 1
36 32 33 1
37 32 34 1
38 32 35 1
39 29 36 1
@<TRIPOS>SUBSTRUCTURE
1	RES1	1	GROUP	1 ****	RES
