# created with PyMOL 2.5.2
@<TRIPOS>MOLECULE
BRD7_5NVX_E3ligase
36 39 1                 
SMALL
USER_CHARGES
@<TRIPOS>ATOM
1	  S1	15.888	51.747	82.435	S.2	1	RES1	0.000	
2	  N5	14.991	50.568	80.346	N.2	1	RES1	0.000	
3	  N6	11.466	53.204	87.952	N.pl3	1	RES1	0.000	
4	  N7	13.054	54.162	91.129	N.pl3	1	RES1	0.000	
5	  O7	12.871	51.978	89.228	O.2	1	RES1	0.000	
6	  N8	11.383	54.501	94.345	N.pl3	1	RES1	0.000	
7	  O8	14.281	56.860	90.533	O.3	1	RES1	0.000	
8	  O9	10.891	53.725	91.739	O.2	1	RES1	0.000	
9	 O10	12.540	56.398	94.939	O.2	1	RES1	0.000	
10	 C28	11.707	50.695	85.210	C.2	1	RES1	0.000	
11	 C29	12.523	50.486	84.079	C.2	1	RES1	0.000	
12	 C30	13.402	51.456	83.612	C.2	1	RES1	0.000	
13	 C31	14.260	51.217	82.446	C.2	1	RES1	0.000	
14	 C32	13.971	50.602	81.230	C.2	1	RES1	0.000	
15	 C33	12.707	49.951	80.809	C.3	1	RES1	0.000	
16	 C34	16.057	51.154	80.847	C.2	1	RES1	0.000	
17	 C35	13.491	52.657	84.353	C.2	1	RES1	0.000	
18	 C36	12.694	52.883	85.483	C.2	1	RES1	0.000	
19	 C37	11.794	51.885	85.905	C.2	1	RES1	0.000	
20	 C38	10.957	52.120	87.143	C.3	1	RES1	0.000	
21	 C39	12.359	53.043	88.982	C.2	1	RES1	0.000	
22	 C40	12.783	54.346	89.708	C.3	1	RES1	0.000	
23	 C41	14.094	54.908	89.127	C.3	1	RES1	0.000	
24	 C42	14.773	55.541	90.295	C.3	1	RES1	0.000	
25	 C43	14.400	54.649	91.465	C.3	1	RES1	0.000	
26	 C44	12.060	53.913	92.090	C.2	1	RES1	0.000	
27	 C45	12.459	53.849	93.581	C.3	1	RES1	0.000	
28	 C46	11.511	55.748	94.953	C.2	1	RES1	0.000	
29	 C47	10.285	56.190	95.636	C.3	1	RES1	0.000	
30	 C48	10.386	56.976	96.946	C.3	1	RES1	0.000	
31	 C49	9.929	57.660	95.699	C.3	1	RES1	0.000	
32	 C50	12.728	52.393	94.066	C.3	1	RES1	0.000	
33	 C51	11.455	51.510	94.028	C.3	1	RES1	0.000	
34	 C52	13.205	52.401	95.525	C.3	1	RES1	0.000	
35	 C53	13.825	51.727	93.209	C.3	1	RES1	0.000	
36	  F1	9.148	55.348	95.550	 F	1	RES1	0.000	
@<TRIPOS>BOND
1 1 13 ar
2 1 16 ar
3 9 28 2
4 10 11 ar
5 10 19 ar
6 11 12 ar
7 12 13 1
8 12 17 ar
9 13 14 ar
10 2 14 ar
11 14 15 1
12 2 16 ar
13 17 18 ar
14 18 19 ar
15 19 20 1
16 3 20 1
17 3 21 1
18 5 21 2
19 21 22 1
20 4 22 1
21 22 23 1
22 23 24 1
23 7 24 1
24 24 25 1
25 4 25 1
26 4 26 1
27 8 26 2
28 26 27 1
29 6 27 1
30 27 32 1
31 6 28 1
32 28 29 1
33 29 30 1
34 29 31 1
35 30 31 1
36 32 33 1
37 32 34 1
38 32 35 1
39 29 36 1
@<TRIPOS>SUBSTRUCTURE
1	RES1	1	GROUP	1 ****	RES
