# created with PyMOL 2.5.2
@<TRIPOS>MOLECULE
ER_4W9H_E3ligase
34 36 1                 
SMALL
USER_CHARGES
@<TRIPOS>ATOM
1	  S1	15.524	51.320	82.124	S.2	1	RES1	0.000	
2	  N2	11.068	54.513	94.012	N.pl3	1	RES1	0.000	
3	  N3	12.806	54.089	90.901	N.pl3	1	RES1	0.000	
4	  N4	11.273	53.117	87.672	N.pl3	1	RES1	0.000	
5	  O4	12.420	56.206	94.785	O.2	1	RES1	0.000	
6	  N5	14.509	50.282	80.029	N.2	1	RES1	0.000	
7	  O5	10.651	53.591	91.421	O.2	1	RES1	0.000	
8	  O6	13.989	56.774	89.992	O.3	1	RES1	0.000	
9	  O7	12.289	51.799	89.264	O.2	1	RES1	0.000	
10	 C10	10.072	56.331	95.224	C.3	1	RES1	0.000	
11	 C11	11.308	55.711	94.642	C.2	1	RES1	0.000	
12	 C12	12.108	53.750	93.301	C.3	1	RES1	0.000	
13	 C13	11.779	53.821	91.818	C.2	1	RES1	0.000	
14	 C14	14.123	54.653	91.206	C.3	1	RES1	0.000	
15	 C15	14.517	55.447	89.964	C.3	1	RES1	0.000	
16	 C16	13.842	54.677	88.841	C.3	1	RES1	0.000	
17	 C17	12.541	54.194	89.471	C.3	1	RES1	0.000	
18	 C18	12.096	52.891	88.785	C.2	1	RES1	0.000	
19	 C19	10.668	52.011	86.906	C.3	1	RES1	0.000	
20	 C20	9.189	52.279	86.659	C.3	1	RES1	0.000	
21	 C21	11.472	51.775	85.651	C.2	1	RES1	0.000	
22	 C22	11.343	50.563	84.991	C.2	1	RES1	0.000	
23	 C23	12.101	50.300	83.839	C.2	1	RES1	0.000	
24	 C24	13.050	51.252	83.364	C.2	1	RES1	0.000	
25	 C25	13.832	50.954	82.157	C.2	1	RES1	0.000	
26	 C26	13.463	50.407	80.926	C.2	1	RES1	0.000	
27	 C27	12.132	49.989	80.486	C.3	1	RES1	0.000	
28	 C28	15.616	50.731	80.531	C.2	1	RES1	0.000	
29	 C29	13.152	52.476	84.033	C.2	1	RES1	0.000	
30	 C30	12.375	52.735	85.165	C.2	1	RES1	0.000	
31	 C31	12.273	52.287	93.884	C.3	1	RES1	0.000	
32	 C32	13.219	51.456	93.011	C.3	1	RES1	0.000	
33	 C33	12.849	52.339	95.306	C.3	1	RES1	0.000	
34	 C34	10.911	51.574	93.935	C.3	1	RES1	0.000	
@<TRIPOS>BOND
1 1 25 ar
2 1 28 ar
3 10 11 1
4 2 11 1
5 5 11 2
6 2 12 1
7 12 13 1
8 12 31 1
9 3 13 1
10 7 13 2
11 3 14 1
12 14 15 1
13 8 15 1
14 15 16 1
15 16 17 1
16 3 17 1
17 17 18 1
18 4 18 1
19 9 18 2
20 4 19 1
21 19 20 1
22 19 21 1
23 21 22 ar
24 21 30 ar
25 22 23 ar
26 23 24 ar
27 24 25 1
28 24 29 ar
29 25 26 ar
30 6 26 ar
31 26 27 1
32 6 28 ar
33 29 30 ar
34 31 32 1
35 31 33 1
36 31 34 1
@<TRIPOS>SUBSTRUCTURE
1	RES1	1	GROUP	1 ****	RES
