# created with PyMOL 2.5.2
@<TRIPOS>MOLECULE
ER_4W9H_E3ligase
34 36 1                 
SMALL
USER_CHARGES
@<TRIPOS>ATOM
1	  O1	12.221	56.280	94.739	O.2	1	RES1	0.000	
2	  S1	15.524	51.395	82.019	S.2	1	RES1	0.000	
3	  N2	10.963	54.485	93.975	N.pl3	1	RES1	0.000	
4	  O2	10.571	53.631	91.398	O.2	1	RES1	0.000	
5	  N3	12.739	54.091	90.887	N.pl3	1	RES1	0.000	
6	  O3	14.122	56.694	90.304	O.3	1	RES1	0.000	
7	  N4	11.301	53.111	87.707	N.pl3	1	RES1	0.000	
8	  O4	12.423	51.869	89.285	O.2	1	RES1	0.000	
9	  N5	14.480	50.222	79.989	N.2	1	RES1	0.000	
10	  C9	9.878	56.243	95.207	C.3	1	RES1	0.000	
11	 C10	11.143	55.685	94.634	C.2	1	RES1	0.000	
12	 C11	12.053	53.752	93.293	C.3	1	RES1	0.000	
13	 C12	11.724	53.845	91.802	C.2	1	RES1	0.000	
14	 C13	14.136	54.466	91.248	C.3	1	RES1	0.000	
15	 C14	14.574	55.349	90.102	C.3	1	RES1	0.000	
16	 C15	13.841	54.788	88.890	C.3	1	RES1	0.000	
17	 C16	12.505	54.286	89.487	C.3	1	RES1	0.000	
18	 C17	12.132	52.963	88.822	C.2	1	RES1	0.000	
19	 C18	10.747	52.025	86.917	C.3	1	RES1	0.000	
20	 C19	9.236	52.147	86.696	C.3	1	RES1	0.000	
21	 C20	11.552	51.790	85.675	C.2	1	RES1	0.000	
22	 C21	12.445	52.729	85.158	C.2	1	RES1	0.000	
23	 C22	13.205	52.477	84.009	C.2	1	RES1	0.000	
24	 C23	13.106	51.246	83.320	C.2	1	RES1	0.000	
25	 C24	13.857	50.941	82.149	C.2	1	RES1	0.000	
26	 C25	13.485	50.360	80.920	C.2	1	RES1	0.000	
27	 C26	12.119	49.825	80.555	C.3	1	RES1	0.000	
28	 C27	15.584	50.764	80.439	C.2	1	RES1	0.000	
29	 C28	12.166	50.324	83.812	C.2	1	RES1	0.000	
30	 C29	11.434	50.573	84.981	C.2	1	RES1	0.000	
31	 C30	12.274	52.332	93.835	C.3	1	RES1	0.000	
32	 C31	13.365	51.620	93.021	C.3	1	RES1	0.000	
33	 C32	12.719	52.391	95.285	C.3	1	RES1	0.000	
34	 C33	10.982	51.450	93.753	C.3	1	RES1	0.000	
@<TRIPOS>BOND
1 1 11 2
2 2 25 ar
3 2 28 ar
4 3 11 1
5 10 11 1
6 3 12 1
7 12 13 1
8 12 31 1
9 4 13 2
10 5 13 1
11 5 14 1
12 14 15 1
13 6 15 1
14 15 16 1
15 16 17 1
16 5 17 1
17 17 18 1
18 7 18 1
19 8 18 2
20 7 19 1
21 19 20 1
22 19 21 1
23 21 22 ar
24 21 30 ar
25 22 23 ar
26 23 24 ar
27 24 25 1
28 24 29 ar
29 25 26 ar
30 9 26 ar
31 26 27 1
32 9 28 ar
33 29 30 ar
34 31 32 1
35 31 33 1
36 31 34 1
@<TRIPOS>SUBSTRUCTURE
1	RES1	1	GROUP	1 ****	RES
