# created with PyMOL 2.5.2
@<TRIPOS>MOLECULE
ER_4W9H_E3ligase
34 36 1                 
SMALL
USER_CHARGES
@<TRIPOS>ATOM
1	  O1	12.221	56.276	94.717	O.2	1	RES1	0.000	
2	  S1	15.530	51.340	82.069	S.2	1	RES1	0.000	
3	  N2	10.956	54.469	93.964	N.pl3	1	RES1	0.000	
4	  O2	10.589	53.692	91.398	O.2	1	RES1	0.000	
5	  N3	12.795	54.092	90.891	N.pl3	1	RES1	0.000	
6	  O3	14.137	56.721	90.255	O.3	1	RES1	0.000	
7	  N4	11.280	53.125	87.658	N.pl3	1	RES1	0.000	
8	  O4	12.413	51.869	89.258	O.2	1	RES1	0.000	
9	  C5	9.858	56.221	95.229	C.3	1	RES1	0.000	
10	  N5	14.486	50.255	79.973	N.2	1	RES1	0.000	
11	  C6	11.146	55.679	94.617	C.2	1	RES1	0.000	
12	  C7	12.055	53.738	93.292	C.3	1	RES1	0.000	
13	  C8	11.748	53.814	91.799	C.2	1	RES1	0.000	
14	  C9	14.131	54.512	91.250	C.3	1	RES1	0.000	
15	 C10	14.573	55.384	90.081	C.3	1	RES1	0.000	
16	 C11	13.842	54.751	88.890	C.3	1	RES1	0.000	
17	 C12	12.518	54.249	89.470	C.3	1	RES1	0.000	
18	 C13	12.128	52.961	88.756	C.2	1	RES1	0.000	
19	 C14	10.733	52.002	86.909	C.3	1	RES1	0.000	
20	 C15	9.243	52.231	86.609	C.3	1	RES1	0.000	
21	 C16	11.543	51.770	85.665	C.2	1	RES1	0.000	
22	 C17	12.390	52.744	85.147	C.2	1	RES1	0.000	
23	 C18	13.177	52.461	84.012	C.2	1	RES1	0.000	
24	 C19	13.078	51.228	83.321	C.2	1	RES1	0.000	
25	 C20	13.857	50.973	82.127	C.2	1	RES1	0.000	
26	 C21	13.464	50.400	80.920	C.2	1	RES1	0.000	
27	 C22	12.127	49.949	80.495	C.3	1	RES1	0.000	
28	 C23	15.612	50.726	80.501	C.2	1	RES1	0.000	
29	 C24	12.195	50.282	83.868	C.2	1	RES1	0.000	
30	 C25	11.440	50.538	85.005	C.2	1	RES1	0.000	
31	 C26	12.266	52.303	93.873	C.3	1	RES1	0.000	
32	 C27	13.367	51.604	93.078	C.3	1	RES1	0.000	
33	 C28	12.713	52.427	95.351	C.3	1	RES1	0.000	
34	 C29	11.001	51.456	93.794	C.3	1	RES1	0.000	
@<TRIPOS>BOND
1 1 11 2
2 2 25 ar
3 2 28 ar
4 3 11 1
5 3 12 1
6 4 13 2
7 5 13 1
8 5 14 1
9 9 11 1
10 12 13 1
11 6 15 1
12 14 15 1
13 15 16 1
14 16 17 1
15 5 17 1
16 17 18 1
17 7 18 1
18 8 18 2
19 7 19 1
20 19 20 1
21 19 21 1
22 21 22 ar
23 21 30 ar
24 22 23 ar
25 23 24 ar
26 24 25 1
27 24 29 ar
28 25 26 ar
29 10 26 ar
30 26 27 1
31 10 28 ar
32 29 30 ar
33 12 31 1
34 31 32 1
35 31 33 1
36 31 34 1
@<TRIPOS>SUBSTRUCTURE
1	RES1	1	GROUP	1 ****	RES
