# created with PyMOL 2.5.2
@<TRIPOS>MOLECULE
ER_4W9H_E3ligase
34 36 1                 
SMALL
USER_CHARGES
@<TRIPOS>ATOM
1	  O1	12.551	56.323	94.691	O.2	1	RES1	0.000	
2	  S1	15.529	51.401	82.189	S.2	1	RES1	0.000	
3	  N2	11.126	54.623	94.070	N.pl3	1	RES1	0.000	
4	  O2	10.529	53.766	91.499	O.2	1	RES1	0.000	
5	  N3	12.731	54.029	90.862	N.pl3	1	RES1	0.000	
6	  O3	14.008	56.625	90.079	O.3	1	RES1	0.000	
7	  N4	11.151	52.965	87.720	N.pl3	1	RES1	0.000	
8	  O4	12.337	51.693	89.233	O.2	1	RES1	0.000	
9	  N5	14.585	50.472	79.989	N.2	1	RES1	0.000	
10	  C6	10.258	56.470	95.327	C.3	1	RES1	0.000	
11	  C7	11.429	55.796	94.653	C.2	1	RES1	0.000	
12	  C8	12.118	53.829	93.302	C.3	1	RES1	0.000	
13	  C9	11.705	53.884	91.837	C.2	1	RES1	0.000	
14	 C10	14.090	54.446	91.172	C.3	1	RES1	0.000	
15	 C11	14.474	55.278	89.942	C.3	1	RES1	0.000	
16	 C12	13.741	54.590	88.800	C.3	1	RES1	0.000	
17	 C13	12.431	54.140	89.445	C.3	1	RES1	0.000	
18	 C14	11.985	52.795	88.816	C.2	1	RES1	0.000	
19	 C15	10.647	51.851	86.940	C.3	1	RES1	0.000	
20	 C16	9.156	52.070	86.647	C.3	1	RES1	0.000	
21	 C17	11.496	51.620	85.701	C.2	1	RES1	0.000	
22	 C18	12.335	52.622	85.235	C.2	1	RES1	0.000	
23	 C19	13.096	52.449	84.090	C.2	1	RES1	0.000	
24	 C20	13.017	51.254	83.344	C.2	1	RES1	0.000	
25	 C21	13.843	51.039	82.153	C.2	1	RES1	0.000	
26	 C22	13.513	50.516	80.899	C.2	1	RES1	0.000	
27	 C23	12.224	50.023	80.420	C.3	1	RES1	0.000	
28	 C24	15.664	50.907	80.564	C.2	1	RES1	0.000	
29	 C25	12.171	50.258	83.809	C.2	1	RES1	0.000	
30	 C26	11.406	50.425	84.954	C.2	1	RES1	0.000	
31	 C27	12.278	52.360	93.842	C.3	1	RES1	0.000	
32	 C28	13.132	51.486	92.907	C.3	1	RES1	0.000	
33	 C29	12.885	52.362	95.217	C.3	1	RES1	0.000	
34	 C30	10.886	51.711	93.927	C.3	1	RES1	0.000	
@<TRIPOS>BOND
1 1 11 2
2 2 25 ar
3 2 28 ar
4 3 11 1
5 3 12 1
6 4 13 2
7 5 13 1
8 10 11 1
9 12 13 1
10 5 14 1
11 14 15 1
12 6 15 1
13 15 16 1
14 16 17 1
15 5 17 1
16 17 18 1
17 7 18 1
18 8 18 2
19 7 19 1
20 19 20 1
21 19 21 1
22 21 22 ar
23 21 30 ar
24 22 23 ar
25 23 24 ar
26 24 25 1
27 24 29 ar
28 25 26 ar
29 9 26 ar
30 26 27 1
31 9 28 ar
32 29 30 ar
33 12 31 1
34 31 32 1
35 31 33 1
36 31 34 1
@<TRIPOS>SUBSTRUCTURE
1	RES1	1	GROUP	1 ****	RES
