# created with PyMOL 2.5.2
@<TRIPOS>MOLECULE
ER_4W9H_E3ligase
34 36 1                 
SMALL
USER_CHARGES
@<TRIPOS>ATOM
1	  O1	12.425	56.245	94.707	O.2	1	RES1	0.000	
2	  S1	15.492	51.376	82.141	S.2	1	RES1	0.000	
3	  N2	11.082	54.508	94.044	N.pl3	1	RES1	0.000	
4	  O2	10.626	53.652	91.449	O.2	1	RES1	0.000	
5	  N3	12.788	54.107	90.908	N.pl3	1	RES1	0.000	
6	  O3	14.071	56.737	90.103	O.3	1	RES1	0.000	
7	  N4	11.218	53.105	87.689	N.pl3	1	RES1	0.000	
8	  O4	12.359	51.826	89.224	O.2	1	RES1	0.000	
9	  N5	14.553	50.298	80.036	N.2	1	RES1	0.000	
10	  C7	10.090	56.357	95.259	C.3	1	RES1	0.000	
11	  C8	11.342	55.718	94.662	C.2	1	RES1	0.000	
12	  C9	12.127	53.754	93.335	C.3	1	RES1	0.000	
13	 C10	11.756	53.830	91.820	C.2	1	RES1	0.000	
14	 C11	14.141	54.567	91.183	C.3	1	RES1	0.000	
15	 C12	14.522	55.387	89.962	C.3	1	RES1	0.000	
16	 C13	13.781	54.679	88.821	C.3	1	RES1	0.000	
17	 C14	12.485	54.219	89.474	C.3	1	RES1	0.000	
18	 C15	12.058	52.916	88.768	C.2	1	RES1	0.000	
19	 C16	10.656	51.991	86.929	C.3	1	RES1	0.000	
20	 C17	9.157	52.223	86.634	C.3	1	RES1	0.000	
21	 C18	11.463	51.765	85.663	C.2	1	RES1	0.000	
22	 C19	12.326	52.718	85.117	C.2	1	RES1	0.000	
23	 C20	13.084	52.463	83.990	C.2	1	RES1	0.000	
24	 C21	12.988	51.247	83.320	C.2	1	RES1	0.000	
25	 C22	13.814	50.974	82.133	C.2	1	RES1	0.000	
26	 C23	13.519	50.414	80.913	C.2	1	RES1	0.000	
27	 C24	12.171	49.957	80.443	C.3	1	RES1	0.000	
28	 C25	15.654	50.745	80.585	C.2	1	RES1	0.000	
29	 C26	12.151	50.271	83.862	C.2	1	RES1	0.000	
30	 C27	11.382	50.514	85.005	C.2	1	RES1	0.000	
31	 C28	12.282	52.314	93.869	C.3	1	RES1	0.000	
32	 C29	13.252	51.453	93.018	C.3	1	RES1	0.000	
33	 C30	12.795	52.312	95.309	C.3	1	RES1	0.000	
34	 C31	10.919	51.589	93.887	C.3	1	RES1	0.000	
@<TRIPOS>BOND
1 1 11 2
2 2 25 ar
3 2 28 ar
4 3 11 1
5 3 12 1
6 10 11 1
7 4 13 2
8 5 13 1
9 12 13 1
10 5 14 1
11 14 15 1
12 6 15 1
13 15 16 1
14 16 17 1
15 5 17 1
16 17 18 1
17 7 18 1
18 8 18 2
19 7 19 1
20 19 20 1
21 19 21 1
22 21 22 ar
23 21 30 ar
24 22 23 ar
25 23 24 ar
26 24 25 1
27 24 29 ar
28 25 26 ar
29 9 26 ar
30 26 27 1
31 9 28 ar
32 29 30 ar
33 12 31 1
34 31 32 1
35 31 33 1
36 31 34 1
@<TRIPOS>SUBSTRUCTURE
1	RES1	1	GROUP	1 ****	RES
