# created with PyMOL 2.5.2
@<TRIPOS>MOLECULE
BTK_6H0G_E3ligase
20 22 1                 
SMALL
USER_CHARGES
@<TRIPOS>ATOM
1	  N6	1.984	54.421	-85.598	N.pl3	1	RES1	0.000	
2	  O6	2.803	53.760	-82.842	O.2	1	RES1	0.000	
3	  N7	1.730	51.794	-82.101	N.2	1	RES1	0.000	
4	  O7	3.686	49.673	-77.428	O.2	1	RES1	0.000	
5	  N8	1.992	50.056	-78.887	N.pl3	1	RES1	0.000	
6	  O8	0.209	50.418	-80.230	O.2	1	RES1	0.000	
7	  O9	0.436	49.845	-82.240	O.2	1	RES1	0.000	
8	 C29	1.350	53.194	-85.450	C.2	1	RES1	0.000	
9	 C30	0.517	52.652	-86.474	C.2	1	RES1	0.000	
10	 C31	-0.186	51.464	-86.285	C.2	1	RES1	0.000	
11	 C32	-0.144	50.797	-85.073	C.2	1	RES1	0.000	
12	 C33	0.674	51.332	-84.059	C.2	1	RES1	0.000	
13	 C34	1.352	52.525	-84.245	C.2	1	RES1	0.000	
14	 C35	2.054	52.812	-82.992	C.2	1	RES1	0.000	
15	 C36	2.237	51.650	-80.714	C.3	1	RES1	0.000	
16	 C37	3.717	51.271	-80.648	C.3	1	RES1	0.000	
17	 C38	4.146	51.191	-79.193	C.3	1	RES1	0.000	
18	 C39	3.279	50.228	-78.436	C.2	1	RES1	0.000	
19	 C40	1.387	50.637	-79.971	C.2	1	RES1	0.000	
20	 C41	0.901	50.873	-82.701	C.2	1	RES1	0.000	
@<TRIPOS>BOND
1 1 8 1
2 8 9 ar
3 8 13 ar
4 9 10 ar
5 10 11 ar
6 11 12 ar
7 12 13 ar
8 12 20 ar
9 13 14 ar
10 2 14 2
11 3 14 ar
12 3 15 1
13 15 16 1
14 15 19 1
15 16 17 1
16 17 18 1
17 4 18 2
18 5 18 1
19 5 19 1
20 6 19 2
21 3 20 ar
22 7 20 2
@<TRIPOS>SUBSTRUCTURE
1	RES1	1	GROUP	1 ****	RES
