# created with PyMOL 2.5.2
@<TRIPOS>MOLECULE
ER_4W9H_E3ligase
34 36 1                 
SMALL
USER_CHARGES
@<TRIPOS>ATOM
1	  O1	12.414	56.230	94.715	O.2	1	RES1	0.000	
2	  S1	15.483	51.348	82.140	S.2	1	RES1	0.000	
3	  N2	11.086	54.478	94.042	N.pl3	1	RES1	0.000	
4	  O2	10.634	53.624	91.425	O.2	1	RES1	0.000	
5	  N3	12.785	54.132	90.902	N.pl3	1	RES1	0.000	
6	  O3	14.098	56.757	90.158	O.3	1	RES1	0.000	
7	  N4	11.211	53.136	87.667	N.pl3	1	RES1	0.000	
8	  O4	12.382	51.880	89.225	O.2	1	RES1	0.000	
9	  N5	14.550	50.268	80.013	N.2	1	RES1	0.000	
10	  C8	10.085	56.319	95.255	C.3	1	RES1	0.000	
11	  C9	11.325	55.697	94.666	C.2	1	RES1	0.000	
12	 C10	12.138	53.753	93.341	C.3	1	RES1	0.000	
13	 C11	11.776	53.829	91.849	C.2	1	RES1	0.000	
14	 C12	14.163	54.551	91.203	C.3	1	RES1	0.000	
15	 C13	14.533	55.395	89.984	C.3	1	RES1	0.000	
16	 C14	13.802	54.776	88.841	C.3	1	RES1	0.000	
17	 C15	12.483	54.267	89.465	C.3	1	RES1	0.000	
18	 C16	12.051	52.977	88.752	C.2	1	RES1	0.000	
19	 C17	10.672	52.013	86.937	C.3	1	RES1	0.000	
20	 C18	9.180	52.205	86.640	C.3	1	RES1	0.000	
21	 C19	11.469	51.783	85.656	C.2	1	RES1	0.000	
22	 C20	12.307	52.767	85.117	C.2	1	RES1	0.000	
23	 C21	13.069	52.498	83.957	C.2	1	RES1	0.000	
24	 C22	12.987	51.272	83.309	C.2	1	RES1	0.000	
25	 C23	13.817	50.961	82.121	C.2	1	RES1	0.000	
26	 C24	13.477	50.356	80.905	C.2	1	RES1	0.000	
27	 C25	12.176	49.822	80.480	C.3	1	RES1	0.000	
28	 C26	15.636	50.751	80.541	C.2	1	RES1	0.000	
29	 C27	12.174	50.270	83.884	C.2	1	RES1	0.000	
30	 C28	11.427	50.527	85.026	C.2	1	RES1	0.000	
31	 C29	12.287	52.278	93.859	C.3	1	RES1	0.000	
32	 C30	13.265	51.430	93.046	C.3	1	RES1	0.000	
33	 C31	12.726	52.259	95.332	C.3	1	RES1	0.000	
34	 C32	10.881	51.603	93.810	C.3	1	RES1	0.000	
@<TRIPOS>BOND
1 1 11 2
2 2 25 ar
3 2 28 ar
4 3 11 1
5 10 11 1
6 3 12 1
7 12 13 1
8 12 31 1
9 4 13 2
10 5 13 1
11 5 14 1
12 14 15 1
13 6 15 1
14 15 16 1
15 16 17 1
16 5 17 1
17 17 18 1
18 7 18 1
19 8 18 2
20 7 19 1
21 19 20 1
22 19 21 1
23 21 22 ar
24 21 30 ar
25 22 23 ar
26 23 24 ar
27 24 25 1
28 24 29 ar
29 25 26 ar
30 9 26 ar
31 26 27 1
32 9 28 ar
33 29 30 ar
34 31 32 1
35 31 33 1
36 31 34 1
@<TRIPOS>SUBSTRUCTURE
1	RES1	1	GROUP	1 ****	RES
