# created with PyMOL 2.5.2
@<TRIPOS>MOLECULE
ER_4W9H_E3ligase
34 36 1                 
SMALL
USER_CHARGES
@<TRIPOS>ATOM
1	  O1	12.458	56.255	94.691	O.2	1	RES1	0.000	
2	  S1	15.495	51.387	82.129	S.2	1	RES1	0.000	
3	  N2	11.081	54.505	94.022	N.pl3	1	RES1	0.000	
4	  O2	10.610	53.625	91.425	O.2	1	RES1	0.000	
5	  N3	12.741	54.102	90.900	N.pl3	1	RES1	0.000	
6	  O3	14.093	56.713	90.066	O.3	1	RES1	0.000	
7	  N4	11.187	53.095	87.706	N.pl3	1	RES1	0.000	
8	  O4	12.408	51.818	89.199	O.2	1	RES1	0.000	
9	  N5	14.513	50.271	80.035	N.2	1	RES1	0.000	
10	 C10	10.095	56.336	95.276	C.3	1	RES1	0.000	
11	 C11	11.347	55.720	94.636	C.2	1	RES1	0.000	
12	 C12	12.117	53.758	93.296	C.3	1	RES1	0.000	
13	 C13	11.724	53.825	91.782	C.2	1	RES1	0.000	
14	 C14	14.132	54.545	91.198	C.3	1	RES1	0.000	
15	 C15	14.535	55.348	89.964	C.3	1	RES1	0.000	
16	 C16	13.788	54.687	88.818	C.3	1	RES1	0.000	
17	 C17	12.479	54.239	89.456	C.3	1	RES1	0.000	
18	 C18	12.009	52.906	88.818	C.2	1	RES1	0.000	
19	 C19	10.672	52.010	86.960	C.3	1	RES1	0.000	
20	 C20	9.179	52.204	86.636	C.3	1	RES1	0.000	
21	 C21	11.477	51.784	85.688	C.2	1	RES1	0.000	
22	 C22	11.395	50.567	85.009	C.2	1	RES1	0.000	
23	 C23	12.177	50.322	83.848	C.2	1	RES1	0.000	
24	 C24	13.015	51.289	83.341	C.2	1	RES1	0.000	
25	 C25	13.819	51.002	82.155	C.2	1	RES1	0.000	
26	 C26	13.484	50.386	80.952	C.2	1	RES1	0.000	
27	 C27	12.172	49.813	80.550	C.3	1	RES1	0.000	
28	 C28	15.623	50.787	80.553	C.2	1	RES1	0.000	
29	 C29	13.133	52.511	84.042	C.2	1	RES1	0.000	
30	 C30	12.367	52.764	85.158	C.2	1	RES1	0.000	
31	 C31	12.269	52.283	93.839	C.3	1	RES1	0.000	
32	 C32	13.240	51.434	92.981	C.3	1	RES1	0.000	
33	 C33	12.800	52.331	95.274	C.3	1	RES1	0.000	
34	 C34	10.914	51.587	93.861	C.3	1	RES1	0.000	
@<TRIPOS>BOND
1 1 11 2
2 2 25 ar
3 2 28 ar
4 10 11 1
5 3 11 1
6 3 12 1
7 12 13 1
8 12 31 1
9 4 13 2
10 5 13 1
11 5 14 1
12 14 15 1
13 6 15 1
14 15 16 1
15 16 17 1
16 5 17 1
17 17 18 1
18 7 18 1
19 8 18 2
20 7 19 1
21 19 20 1
22 19 21 1
23 21 22 ar
24 21 30 ar
25 22 23 ar
26 23 24 ar
27 24 25 1
28 24 29 ar
29 25 26 ar
30 9 26 ar
31 26 27 1
32 9 28 ar
33 29 30 ar
34 31 32 1
35 31 33 1
36 31 34 1
@<TRIPOS>SUBSTRUCTURE
1	RES1	1	GROUP	1 ****	RES
