# created with PyMOL 2.5.2
@<TRIPOS>MOLECULE
ER_4W9H_E3ligase
34 36 1                 
SMALL
USER_CHARGES
@<TRIPOS>ATOM
1	  O1	12.424	56.265	94.732	O.2	1	RES1	0.000	
2	  S1	15.486	51.439	82.084	S.2	1	RES1	0.000	
3	  N2	11.113	54.504	94.008	N.pl3	1	RES1	0.000	
4	  O2	10.647	53.587	91.440	O.2	1	RES1	0.000	
5	  N3	12.813	54.083	90.904	N.pl3	1	RES1	0.000	
6	  O3	13.999	56.750	90.054	O.3	1	RES1	0.000	
7	  N4	11.248	53.127	87.682	N.pl3	1	RES1	0.000	
8	  O4	12.288	51.795	89.237	O.2	1	RES1	0.000	
9	  N5	14.529	50.220	80.015	N.2	1	RES1	0.000	
10	 C11	10.084	56.309	95.242	C.3	1	RES1	0.000	
11	 C12	11.329	55.710	94.641	C.2	1	RES1	0.000	
12	 C13	12.140	53.747	93.343	C.3	1	RES1	0.000	
13	 C14	11.795	53.831	91.820	C.2	1	RES1	0.000	
14	 C15	14.138	54.655	91.202	C.3	1	RES1	0.000	
15	 C16	14.505	55.440	89.978	C.3	1	RES1	0.000	
16	 C17	13.808	54.691	88.836	C.3	1	RES1	0.000	
17	 C18	12.529	54.195	89.484	C.3	1	RES1	0.000	
18	 C19	12.079	52.903	88.776	C.2	1	RES1	0.000	
19	 C20	10.663	52.048	86.900	C.3	1	RES1	0.000	
20	 C21	9.189	52.366	86.571	C.3	1	RES1	0.000	
21	 C22	11.489	51.811	85.645	C.2	1	RES1	0.000	
22	 C23	11.341	50.594	84.975	C.2	1	RES1	0.000	
23	 C24	12.090	50.306	83.832	C.2	1	RES1	0.000	
24	 C25	13.004	51.263	83.322	C.2	1	RES1	0.000	
25	 C26	13.829	50.966	82.134	C.2	1	RES1	0.000	
26	 C27	13.503	50.373	80.907	C.2	1	RES1	0.000	
27	 C28	12.173	49.868	80.493	C.3	1	RES1	0.000	
28	 C29	15.623	50.746	80.526	C.2	1	RES1	0.000	
29	 C30	13.167	52.453	84.018	C.2	1	RES1	0.000	
30	 C31	12.399	52.720	85.150	C.2	1	RES1	0.000	
31	 C32	12.268	52.267	93.900	C.3	1	RES1	0.000	
32	 C33	13.252	51.432	93.088	C.3	1	RES1	0.000	
33	 C34	12.728	52.298	95.354	C.3	1	RES1	0.000	
34	 C35	10.884	51.592	93.875	C.3	1	RES1	0.000	
@<TRIPOS>BOND
1 1 11 2
2 2 25 ar
3 2 28 ar
4 10 11 1
5 3 11 1
6 3 12 1
7 12 13 1
8 12 31 1
9 4 13 2
10 5 13 1
11 5 14 1
12 14 15 1
13 6 15 1
14 15 16 1
15 16 17 1
16 5 17 1
17 17 18 1
18 7 18 1
19 8 18 2
20 7 19 1
21 19 20 1
22 19 21 1
23 21 22 ar
24 21 30 ar
25 22 23 ar
26 23 24 ar
27 24 25 1
28 24 29 ar
29 25 26 ar
30 9 26 ar
31 26 27 1
32 9 28 ar
33 29 30 ar
34 31 32 1
35 31 33 1
36 31 34 1
@<TRIPOS>SUBSTRUCTURE
1	RES1	1	GROUP	1 ****	RES
