# created with PyMOL 2.5.2
@<TRIPOS>MOLECULE
ER_4W9H_E3ligase
34 36 1                 
SMALL
USER_CHARGES
@<TRIPOS>ATOM
1	  C1	12.388	49.881	80.525	C.3	1	RES1	0.000	
2	  N1	10.974	52.835	87.746	N.pl3	1	RES1	0.000	
3	  O1	12.419	51.835	89.211	O.2	1	RES1	0.000	
4	  C2	13.614	50.579	80.961	C.2	1	RES1	0.000	
5	  N2	12.501	54.154	90.864	N.pl3	1	RES1	0.000	
6	  O2	15.461	55.626	89.425	O.3	1	RES1	0.000	
7	  S2	15.493	51.769	82.232	S.2	1	RES1	0.000	
8	  C3	13.885	51.135	82.218	C.2	1	RES1	0.000	
9	  N3	11.103	54.613	94.113	N.pl3	1	RES1	0.000	
10	  O3	10.384	53.835	91.616	O.2	1	RES1	0.000	
11	  C4	13.033	51.260	83.405	C.2	1	RES1	0.000	
12	  O4	12.481	56.405	94.667	O.2	1	RES1	0.000	
13	  C5	12.288	50.201	83.903	C.2	1	RES1	0.000	
14	  N5	14.629	50.664	80.068	N.2	1	RES1	0.000	
15	  C6	11.507	50.325	85.061	C.2	1	RES1	0.000	
16	  C7	11.448	51.527	85.763	C.2	1	RES1	0.000	
17	  C8	10.612	51.612	87.028	C.3	1	RES1	0.000	
18	  C9	9.115	51.524	86.784	C.3	1	RES1	0.000	
19	 C10	11.884	52.851	88.791	C.2	1	RES1	0.000	
20	 C11	12.100	54.201	89.445	C.3	1	RES1	0.000	
21	 C12	13.245	54.949	88.744	C.3	1	RES1	0.000	
22	 C13	14.451	54.599	89.575	C.3	1	RES1	0.000	
23	 C14	13.894	54.567	91.002	C.3	1	RES1	0.000	
24	 C15	11.585	53.925	91.851	C.2	1	RES1	0.000	
25	 C16	12.081	53.898	93.308	C.3	1	RES1	0.000	
26	 C17	11.380	55.842	94.698	C.2	1	RES1	0.000	
27	 C18	10.186	56.434	95.418	C.3	1	RES1	0.000	
28	 C49	12.317	52.418	93.850	C.3	1	RES1	0.000	
29	 C50	10.962	51.690	93.941	C.3	1	RES1	0.000	
30	 C51	12.911	52.459	95.271	C.3	1	RES1	0.000	
31	 C52	13.221	51.582	92.952	C.3	1	RES1	0.000	
32	 C53	12.241	52.595	85.286	C.2	1	RES1	0.000	
33	 C54	13.012	52.461	84.121	C.2	1	RES1	0.000	
34	 C55	15.681	51.282	80.578	C.2	1	RES1	0.000	
@<TRIPOS>BOND
1 1 4 1
2 2 17 1
3 2 19 1
4 3 19 2
5 4 8 ar
6 4 14 ar
7 7 8 ar
8 7 34 ar
9 8 11 1
10 11 13 ar
11 11 33 ar
12 13 15 ar
13 14 34 ar
14 15 16 ar
15 16 17 1
16 17 18 1
17 19 20 1
18 5 20 1
19 20 21 1
20 21 22 1
21 6 22 1
22 22 23 1
23 5 23 1
24 5 24 1
25 10 24 2
26 24 25 1
27 9 25 1
28 25 28 1
29 9 26 1
30 12 26 2
31 26 27 1
32 28 29 1
33 28 30 1
34 28 31 1
35 16 32 ar
36 32 33 ar
@<TRIPOS>SUBSTRUCTURE
1	RES1	1	GROUP	1 ****	RES
