# created with PyMOL 2.5.2
@<TRIPOS>MOLECULE
ER_4W9H_E3ligase
34 36 1                 
SMALL
USER_CHARGES
@<TRIPOS>ATOM
1	  C1	12.385	49.957	80.452	C.3	1	RES1	0.000	
2	  N1	10.980	52.804	87.751	N.pl3	1	RES1	0.000	
3	  O1	12.402	51.820	89.277	O.2	1	RES1	0.000	
4	  C2	13.624	50.576	80.946	C.2	1	RES1	0.000	
5	  N2	12.538	54.150	90.832	N.pl3	1	RES1	0.000	
6	  O2	15.472	55.615	89.454	O.3	1	RES1	0.000	
7	  S2	15.456	51.786	82.251	S.2	1	RES1	0.000	
8	  C3	13.850	51.147	82.203	C.2	1	RES1	0.000	
9	  N3	11.104	54.607	94.087	N.pl3	1	RES1	0.000	
10	  O3	10.383	53.800	91.586	O.2	1	RES1	0.000	
11	  C4	12.984	51.280	83.389	C.2	1	RES1	0.000	
12	  O4	12.438	56.412	94.643	O.2	1	RES1	0.000	
13	  C5	12.244	50.181	83.886	C.2	1	RES1	0.000	
14	  N5	14.718	50.626	80.080	N.2	1	RES1	0.000	
15	  C6	11.475	50.348	85.048	C.2	1	RES1	0.000	
16	  C7	11.430	51.511	85.743	C.2	1	RES1	0.000	
17	  C8	10.612	51.607	87.040	C.3	1	RES1	0.000	
18	  C9	9.110	51.529	86.860	C.3	1	RES1	0.000	
19	 C10	11.896	52.832	88.780	C.2	1	RES1	0.000	
20	 C11	12.130	54.207	89.426	C.3	1	RES1	0.000	
21	 C12	13.239	54.951	88.754	C.3	1	RES1	0.000	
22	 C13	14.462	54.663	89.589	C.3	1	RES1	0.000	
23	 C14	13.923	54.577	91.000	C.3	1	RES1	0.000	
24	 C15	11.595	53.917	91.859	C.2	1	RES1	0.000	
25	 C16	12.084	53.868	93.323	C.3	1	RES1	0.000	
26	 C17	11.367	55.841	94.688	C.2	1	RES1	0.000	
27	 C18	10.202	56.441	95.378	C.3	1	RES1	0.000	
28	 C51	12.318	52.425	93.865	C.3	1	RES1	0.000	
29	 C52	10.960	51.709	93.994	C.3	1	RES1	0.000	
30	 C53	12.964	52.451	95.279	C.3	1	RES1	0.000	
31	 C54	13.235	51.589	92.972	C.3	1	RES1	0.000	
32	 C55	12.222	52.590	85.264	C.2	1	RES1	0.000	
33	 C56	12.966	52.472	84.124	C.2	1	RES1	0.000	
34	 C57	15.710	51.250	80.670	C.2	1	RES1	0.000	
@<TRIPOS>BOND
1 1 4 1
2 2 17 1
3 2 19 1
4 3 19 2
5 4 8 ar
6 4 14 ar
7 7 8 ar
8 7 34 ar
9 8 11 1
10 11 13 ar
11 11 33 ar
12 13 15 ar
13 14 34 ar
14 15 16 ar
15 16 17 1
16 17 18 1
17 19 20 1
18 5 20 1
19 20 21 1
20 21 22 1
21 6 22 1
22 22 23 1
23 5 23 1
24 5 24 1
25 10 24 2
26 24 25 1
27 9 25 1
28 25 28 1
29 9 26 1
30 12 26 2
31 26 27 1
32 28 29 1
33 28 30 1
34 28 31 1
35 16 32 ar
36 32 33 ar
@<TRIPOS>SUBSTRUCTURE
1	RES1	1	GROUP	1 ****	RES
