# created with PyMOL 2.5.2
@<TRIPOS>MOLECULE
ER_4W9H_E3ligase
34 36 1                 
SMALL
USER_CHARGES
@<TRIPOS>ATOM
1	  C1	12.204	49.895	80.469	C.3	1	RES1	0.000	
2	  N1	11.190	53.088	87.692	N.pl3	1	RES1	0.000	
3	  O1	12.349	51.817	89.205	O.2	1	RES1	0.000	
4	  C2	13.526	50.399	80.920	C.2	1	RES1	0.000	
5	  N2	12.794	54.090	90.887	N.pl3	1	RES1	0.000	
6	  O2	14.110	56.717	90.075	O.3	1	RES1	0.000	
7	  S2	15.498	51.439	82.142	S.2	1	RES1	0.000	
8	  C3	13.837	50.978	82.166	C.2	1	RES1	0.000	
9	  N3	11.093	54.532	94.025	N.pl3	1	RES1	0.000	
10	  O3	10.624	53.679	91.461	O.2	1	RES1	0.000	
11	  C4	13.016	51.237	83.345	C.2	1	RES1	0.000	
12	  O4	12.436	56.238	94.681	O.2	1	RES1	0.000	
13	  C5	13.093	52.481	84.021	C.2	1	RES1	0.000	
14	  N5	14.539	50.302	80.028	N.2	1	RES1	0.000	
15	  C6	12.317	52.724	85.154	C.2	1	RES1	0.000	
16	  C7	11.448	51.754	85.663	C.2	1	RES1	0.000	
17	  C8	10.642	51.988	86.922	C.3	1	RES1	0.000	
18	  C9	9.142	52.229	86.638	C.3	1	RES1	0.000	
19	 C10	12.038	52.923	88.776	C.2	1	RES1	0.000	
20	 C11	12.477	54.205	89.473	C.3	1	RES1	0.000	
21	 C12	13.778	54.684	88.824	C.3	1	RES1	0.000	
22	 C13	14.533	55.368	89.934	C.3	1	RES1	0.000	
23	 C14	14.139	54.539	91.145	C.3	1	RES1	0.000	
24	 C15	11.768	53.840	91.824	C.2	1	RES1	0.000	
25	 C16	12.137	53.753	93.310	C.3	1	RES1	0.000	
26	 C17	11.368	55.722	94.640	C.2	1	RES1	0.000	
27	 C18	10.129	56.332	95.252	C.3	1	RES1	0.000	
28	 C52	12.262	52.299	93.866	C.3	1	RES1	0.000	
29	 C53	10.857	51.625	93.952	C.3	1	RES1	0.000	
30	 C54	12.816	52.342	95.349	C.3	1	RES1	0.000	
31	 C55	13.217	51.412	93.034	C.3	1	RES1	0.000	
32	 C56	11.397	50.533	85.003	C.2	1	RES1	0.000	
33	 C57	12.122	50.259	83.848	C.2	1	RES1	0.000	
34	 C58	15.622	50.827	80.565	C.2	1	RES1	0.000	
@<TRIPOS>BOND
1 1 4 1
2 2 17 1
3 2 19 1
4 3 19 2
5 4 8 ar
6 4 14 ar
7 7 8 ar
8 7 34 ar
9 8 11 1
10 11 13 ar
11 11 33 ar
12 13 15 ar
13 14 34 ar
14 15 16 ar
15 16 17 1
16 17 18 1
17 19 20 1
18 5 20 1
19 20 21 1
20 21 22 1
21 6 22 1
22 22 23 1
23 5 23 1
24 5 24 1
25 10 24 2
26 24 25 1
27 9 25 1
28 25 28 1
29 9 26 1
30 12 26 2
31 26 27 1
32 28 29 1
33 28 30 1
34 28 31 1
35 16 32 ar
36 32 33 ar
@<TRIPOS>SUBSTRUCTURE
1	RES1	1	GROUP	1 ****	RES
