# created with PyMOL 2.5.2
@<TRIPOS>MOLECULE
ER_4W9H_E3ligase
34 36 1                 
SMALL
USER_CHARGES
@<TRIPOS>ATOM
1	  C1	12.076	49.900	80.552	C.3	1	RES1	0.000	
2	  N1	11.275	53.170	87.671	N.pl3	1	RES1	0.000	
3	  O1	12.321	51.893	89.241	O.2	1	RES1	0.000	
4	  C2	13.445	50.348	80.935	C.2	1	RES1	0.000	
5	  N2	12.830	54.127	90.900	N.pl3	1	RES1	0.000	
6	  O2	14.025	56.798	90.124	O.3	1	RES1	0.000	
7	  S2	15.497	51.332	82.037	S.2	1	RES1	0.000	
8	  C3	13.844	50.942	82.150	C.2	1	RES1	0.000	
9	  N3	11.066	54.473	94.004	N.pl3	1	RES1	0.000	
10	  O3	10.649	53.626	91.434	O.2	1	RES1	0.000	
11	  C4	13.055	51.236	83.344	C.2	1	RES1	0.000	
12	  O4	12.339	56.252	94.745	O.2	1	RES1	0.000	
13	  C5	12.155	50.302	83.864	C.2	1	RES1	0.000	
14	  N5	14.445	50.200	80.016	N.2	1	RES1	0.000	
15	  C6	11.396	50.567	85.010	C.2	1	RES1	0.000	
16	  C7	11.514	51.811	85.666	C.2	1	RES1	0.000	
17	  C8	10.697	52.068	86.948	C.3	1	RES1	0.000	
18	  C9	9.224	52.289	86.617	C.3	1	RES1	0.000	
19	 C10	12.105	52.978	88.775	C.2	1	RES1	0.000	
20	 C11	12.550	54.263	89.478	C.3	1	RES1	0.000	
21	 C12	13.842	54.755	88.879	C.3	1	RES1	0.000	
22	 C13	14.536	55.464	89.991	C.3	1	RES1	0.000	
23	 C14	14.145	54.658	91.226	C.3	1	RES1	0.000	
24	 C15	11.801	53.814	91.838	C.2	1	RES1	0.000	
25	 C16	12.135	53.730	93.327	C.3	1	RES1	0.000	
26	 C17	11.256	55.691	94.648	C.2	1	RES1	0.000	
27	 C18	10.011	56.244	95.256	C.3	1	RES1	0.000	
28	 C51	12.284	52.254	93.855	C.3	1	RES1	0.000	
29	 C52	10.919	51.538	93.773	C.3	1	RES1	0.000	
30	 C53	12.713	52.243	95.322	C.3	1	RES1	0.000	
31	 C54	13.275	51.444	93.018	C.3	1	RES1	0.000	
32	 C55	12.409	52.750	85.146	C.2	1	RES1	0.000	
33	 C56	13.178	52.467	84.007	C.2	1	RES1	0.000	
34	 C57	15.580	50.679	80.460	C.2	1	RES1	0.000	
@<TRIPOS>BOND
1 1 4 1
2 2 17 1
3 2 19 1
4 3 19 2
5 4 8 ar
6 4 14 ar
7 7 8 ar
8 7 34 ar
9 8 11 1
10 11 13 ar
11 11 33 ar
12 13 15 ar
13 14 34 ar
14 15 16 ar
15 16 17 1
16 17 18 1
17 19 20 1
18 5 20 1
19 20 21 1
20 21 22 1
21 6 22 1
22 22 23 1
23 5 23 1
24 5 24 1
25 10 24 2
26 24 25 1
27 9 25 1
28 25 28 1
29 9 26 1
30 12 26 2
31 26 27 1
32 28 29 1
33 28 30 1
34 28 31 1
35 16 32 ar
36 32 33 ar
@<TRIPOS>SUBSTRUCTURE
1	RES1	1	GROUP	1 ****	RES
