# created with PyMOL 2.5.2
@<TRIPOS>MOLECULE
ER_4W9H_E3ligase
34 36 1                 
SMALL
USER_CHARGES
@<TRIPOS>ATOM
1	  C1	12.130	49.809	80.633	C.3	1	RES1	0.000	
2	  N1	11.209	53.125	87.694	N.pl3	1	RES1	0.000	
3	  O1	12.380	51.839	89.172	O.2	1	RES1	0.000	
4	  C2	13.451	50.402	80.973	C.2	1	RES1	0.000	
5	  N2	12.764	54.090	90.877	N.pl3	1	RES1	0.000	
6	  O2	14.073	56.712	90.096	O.3	1	RES1	0.000	
7	  S2	15.518	51.418	82.086	S.2	1	RES1	0.000	
8	  C3	13.875	50.964	82.182	C.2	1	RES1	0.000	
9	  N3	11.090	54.512	94.008	N.pl3	1	RES1	0.000	
10	  O3	10.595	53.604	91.424	O.2	1	RES1	0.000	
11	  C4	13.096	51.232	83.404	C.2	1	RES1	0.000	
12	  O4	12.441	56.263	94.653	O.2	1	RES1	0.000	
13	  C5	13.173	52.461	84.062	C.2	1	RES1	0.000	
14	  N5	14.465	50.338	80.018	N.2	1	RES1	0.000	
15	  C6	12.416	52.723	85.212	C.2	1	RES1	0.000	
16	  C7	11.491	51.769	85.696	C.2	1	RES1	0.000	
17	  C8	10.647	52.037	86.927	C.3	1	RES1	0.000	
18	  C9	9.190	52.266	86.582	C.3	1	RES1	0.000	
19	 C10	12.010	52.933	88.806	C.2	1	RES1	0.000	
20	 C11	12.468	54.238	89.440	C.3	1	RES1	0.000	
21	 C12	13.803	54.685	88.819	C.3	1	RES1	0.000	
22	 C13	14.529	55.380	89.980	C.3	1	RES1	0.000	
23	 C14	14.118	54.529	91.192	C.3	1	RES1	0.000	
24	 C15	11.738	53.830	91.807	C.2	1	RES1	0.000	
25	 C16	12.116	53.757	93.288	C.3	1	RES1	0.000	
26	 C17	11.352	55.703	94.624	C.2	1	RES1	0.000	
27	 C18	10.120	56.356	95.241	C.3	1	RES1	0.000	
28	 C52	12.270	52.279	93.825	C.3	1	RES1	0.000	
29	 C53	10.910	51.581	93.836	C.3	1	RES1	0.000	
30	 C54	12.768	52.292	95.280	C.3	1	RES1	0.000	
31	 C55	13.227	51.442	92.974	C.3	1	RES1	0.000	
32	 C56	11.385	50.552	85.038	C.2	1	RES1	0.000	
33	 C57	12.169	50.313	83.879	C.2	1	RES1	0.000	
34	 C58	15.578	50.843	80.490	C.2	1	RES1	0.000	
@<TRIPOS>BOND
1 1 4 1
2 2 17 1
3 2 19 1
4 3 19 2
5 4 8 ar
6 4 14 ar
7 7 8 ar
8 7 34 ar
9 8 11 1
10 11 13 ar
11 11 33 ar
12 13 15 ar
13 14 34 ar
14 15 16 ar
15 16 17 1
16 17 18 1
17 19 20 1
18 5 20 1
19 20 21 1
20 21 22 1
21 6 22 1
22 22 23 1
23 5 23 1
24 5 24 1
25 10 24 2
26 24 25 1
27 9 25 1
28 25 28 1
29 9 26 1
30 12 26 2
31 26 27 1
32 28 29 1
33 28 30 1
34 28 31 1
35 16 32 ar
36 32 33 ar
@<TRIPOS>SUBSTRUCTURE
1	RES1	1	GROUP	1 ****	RES
