# created with PyMOL 2.5.2
@<TRIPOS>MOLECULE
ER_4W9H_E3ligase
34 36 1                 
SMALL
USER_CHARGES
@<TRIPOS>ATOM
1	  C1	12.140	49.926	80.545	C.3	1	RES1	0.000	
2	  N1	11.216	53.092	87.678	N.pl3	1	RES1	0.000	
3	  O1	12.287	51.822	89.246	O.2	1	RES1	0.000	
4	  C2	13.492	50.409	80.946	C.2	1	RES1	0.000	
5	  N2	12.786	54.081	90.898	N.pl3	1	RES1	0.000	
6	  O2	14.062	56.752	90.092	O.3	1	RES1	0.000	
7	  S2	15.504	51.417	82.096	S.2	1	RES1	0.000	
8	  C3	13.861	50.990	82.154	C.2	1	RES1	0.000	
9	  N3	11.091	54.513	94.028	N.pl3	1	RES1	0.000	
10	  O3	10.623	53.643	91.457	O.2	1	RES1	0.000	
11	  C4	13.057	51.255	83.336	C.2	1	RES1	0.000	
12	  O4	12.425	56.286	94.655	O.2	1	RES1	0.000	
13	  C5	12.150	50.283	83.851	C.2	1	RES1	0.000	
14	  N5	14.502	50.267	80.000	N.2	1	RES1	0.000	
15	  C6	11.387	50.537	84.986	C.2	1	RES1	0.000	
16	  C7	11.485	51.736	85.662	C.2	1	RES1	0.000	
17	  C8	10.649	51.991	86.906	C.3	1	RES1	0.000	
18	  C9	9.179	52.233	86.646	C.3	1	RES1	0.000	
19	 C10	12.057	52.906	88.785	C.2	1	RES1	0.000	
20	 C11	12.486	54.189	89.468	C.3	1	RES1	0.000	
21	 C12	13.788	54.699	88.854	C.3	1	RES1	0.000	
22	 C13	14.542	55.404	89.959	C.3	1	RES1	0.000	
23	 C14	14.146	54.571	91.199	C.3	1	RES1	0.000	
24	 C15	11.773	53.829	91.835	C.2	1	RES1	0.000	
25	 C16	12.142	53.755	93.349	C.3	1	RES1	0.000	
26	 C17	11.330	55.739	94.655	C.2	1	RES1	0.000	
27	 C18	10.091	56.359	95.242	C.3	1	RES1	0.000	
28	 C53	12.291	52.295	93.872	C.3	1	RES1	0.000	
29	 C54	10.913	51.607	93.806	C.3	1	RES1	0.000	
30	 C55	12.710	52.243	95.326	C.3	1	RES1	0.000	
31	 C56	13.263	51.443	93.031	C.3	1	RES1	0.000	
32	 C57	12.373	52.714	85.180	C.2	1	RES1	0.000	
33	 C58	13.121	52.468	84.038	C.2	1	RES1	0.000	
34	 C59	15.626	50.789	80.498	C.2	1	RES1	0.000	
@<TRIPOS>BOND
1 1 4 1
2 2 17 1
3 2 19 1
4 3 19 2
5 4 8 ar
6 4 14 ar
7 7 8 ar
8 7 34 ar
9 8 11 1
10 11 13 ar
11 11 33 ar
12 13 15 ar
13 14 34 ar
14 15 16 ar
15 16 17 1
16 17 18 1
17 19 20 1
18 5 20 1
19 20 21 1
20 21 22 1
21 6 22 1
22 22 23 1
23 5 23 1
24 5 24 1
25 10 24 2
26 24 25 1
27 9 25 1
28 25 28 1
29 9 26 1
30 12 26 2
31 26 27 1
32 28 29 1
33 28 30 1
34 28 31 1
35 16 32 ar
36 32 33 ar
@<TRIPOS>SUBSTRUCTURE
1	RES1	1	GROUP	1 ****	RES
