# created with PyMOL 2.5.2
@<TRIPOS>MOLECULE
ER_4W9H_E3ligase
34 36 1                 
SMALL
USER_CHARGES
@<TRIPOS>ATOM
1	  C1	12.384	49.988	80.427	C.3	1	RES1	0.000	
2	  N1	11.003	52.785	87.665	N.pl3	1	RES1	0.000	
3	  O1	12.459	51.853	89.158	O.2	1	RES1	0.000	
4	  C2	13.680	50.581	80.866	C.2	1	RES1	0.000	
5	  N2	12.274	54.111	90.887	N.pl3	1	RES1	0.000	
6	  O2	15.379	55.466	89.747	O.3	1	RES1	0.000	
7	  S2	15.605	51.764	82.057	S.2	1	RES1	0.000	
8	  C3	13.999	51.133	82.097	C.2	1	RES1	0.000	
9	  N3	11.039	54.666	94.215	N.pl3	1	RES1	0.000	
10	  O3	10.195	53.863	91.776	O.2	1	RES1	0.000	
11	  C4	13.202	51.259	83.315	C.2	1	RES1	0.000	
12	  O4	12.328	56.534	94.636	O.2	1	RES1	0.000	
13	  C5	12.482	50.163	83.807	C.2	1	RES1	0.000	
14	  N5	14.697	50.619	79.917	N.2	1	RES1	0.000	
15	  C6	11.698	50.284	84.984	C.2	1	RES1	0.000	
16	  C7	11.589	51.501	85.668	C.2	1	RES1	0.000	
17	  C8	10.745	51.570	86.909	C.3	1	RES1	0.000	
18	  C9	9.258	51.480	86.527	C.3	1	RES1	0.000	
19	 C10	11.860	52.817	88.748	C.2	1	RES1	0.000	
20	 C11	11.994	54.187	89.450	C.3	1	RES1	0.000	
21	 C12	13.185	54.929	88.857	C.3	1	RES1	0.000	
22	 C13	14.328	54.508	89.766	C.3	1	RES1	0.000	
23	 C14	13.666	54.413	91.132	C.3	1	RES1	0.000	
24	 C15	11.403	53.930	91.953	C.2	1	RES1	0.000	
25	 C16	12.012	53.945	93.376	C.3	1	RES1	0.000	
26	 C17	11.293	55.913	94.747	C.2	1	RES1	0.000	
27	 C18	10.140	56.439	95.587	C.3	1	RES1	0.000	
28	 C54	12.306	52.514	93.919	C.3	1	RES1	0.000	
29	 C55	12.879	52.523	95.360	C.3	1	RES1	0.000	
30	 C56	13.333	51.802	93.008	C.3	1	RES1	0.000	
31	 C57	11.046	51.668	93.912	C.3	1	RES1	0.000	
32	 C58	12.311	52.599	85.178	C.2	1	RES1	0.000	
33	 C59	13.102	52.461	84.019	C.2	1	RES1	0.000	
34	 C60	15.745	51.208	80.440	C.2	1	RES1	0.000	
@<TRIPOS>BOND
1 1 4 1
2 2 17 1
3 2 19 1
4 3 19 2
5 4 8 ar
6 4 14 ar
7 7 8 ar
8 7 34 ar
9 8 11 1
10 11 13 ar
11 11 33 ar
12 13 15 ar
13 14 34 ar
14 15 16 ar
15 16 17 1
16 17 18 1
17 19 20 1
18 5 20 1
19 20 21 1
20 21 22 1
21 6 22 1
22 22 23 1
23 5 23 1
24 5 24 1
25 10 24 2
26 24 25 1
27 9 25 1
28 25 28 1
29 9 26 1
30 12 26 2
31 26 27 1
32 28 29 1
33 28 30 1
34 28 31 1
35 16 32 ar
36 32 33 ar
@<TRIPOS>SUBSTRUCTURE
1	RES1	1	GROUP	1 ****	RES
