# created with PyMOL 2.5.2
@<TRIPOS>MOLECULE
BTK_6H0G_E3ligase
20 22 1                 
SMALL
USER_CHARGES
@<TRIPOS>ATOM
1	  O3	2.786	53.750	-82.835	O.2	1	RES1	0.000	
2	  O4	3.705	49.661	-77.415	O.2	1	RES1	0.000	
3	  O5	0.196	50.464	-80.155	O.2	1	RES1	0.000	
4	  O6	0.451	49.800	-82.280	O.2	1	RES1	0.000	
5	  N8	1.958	54.454	-85.600	N.pl3	1	RES1	0.000	
6	  N9	1.717	51.789	-82.112	N.2	1	RES1	0.000	
7	 N10	1.987	50.086	-78.859	N.pl3	1	RES1	0.000	
8	 C33	1.330	53.208	-85.449	C.2	1	RES1	0.000	
9	 C34	0.542	52.665	-86.476	C.2	1	RES1	0.000	
10	 C35	-0.181	51.461	-86.281	C.2	1	RES1	0.000	
11	 C36	-0.108	50.767	-85.078	C.2	1	RES1	0.000	
12	 C37	0.659	51.338	-84.061	C.2	1	RES1	0.000	
13	 C38	1.375	52.516	-84.246	C.2	1	RES1	0.000	
14	 C39	2.067	52.816	-82.989	C.2	1	RES1	0.000	
15	 C40	2.241	51.637	-80.728	C.3	1	RES1	0.000	
16	 C41	3.694	51.242	-80.674	C.3	1	RES1	0.000	
17	 C42	4.160	51.169	-79.237	C.3	1	RES1	0.000	
18	 C43	3.291	50.233	-78.427	C.2	1	RES1	0.000	
19	 C44	1.357	50.682	-79.934	C.2	1	RES1	0.000	
20	 C45	0.899	50.854	-82.730	C.2	1	RES1	0.000	
@<TRIPOS>BOND
1 1 14 2
2 2 18 2
3 7 18 1
4 7 19 1
5 5 8 1
6 8 9 ar
7 8 13 ar
8 9 10 ar
9 10 11 ar
10 11 12 ar
11 12 13 ar
12 12 20 ar
13 13 14 ar
14 6 14 ar
15 6 15 1
16 15 16 1
17 15 19 1
18 16 17 1
19 17 18 1
20 3 19 2
21 4 20 2
22 6 20 ar
@<TRIPOS>SUBSTRUCTURE
1	RES1	1	GROUP	1 ****	RES
