# created with PyMOL 2.5.2
@<TRIPOS>MOLECULE
ER_4W9H_E3ligase
34 36 1                 
SMALL
USER_CHARGES
@<TRIPOS>ATOM
1	  C1	12.355	50.080	80.432	C.3	1	RES1	0.000	
2	  N1	11.095	52.768	87.786	N.pl3	1	RES1	0.000	
3	  O1	12.609	51.852	89.250	O.2	1	RES1	0.000	
4	  C2	13.644	50.651	80.895	C.2	1	RES1	0.000	
5	  N2	12.482	54.149	90.841	N.pl3	1	RES1	0.000	
6	  O2	15.507	55.588	89.621	O.3	1	RES1	0.000	
7	  S2	15.525	51.759	82.195	S.2	1	RES1	0.000	
8	  C3	13.888	51.175	82.166	C.2	1	RES1	0.000	
9	  N3	10.930	54.639	94.067	N.pl3	1	RES1	0.000	
10	  O3	10.349	53.753	91.532	O.2	1	RES1	0.000	
11	  C4	13.070	51.271	83.362	C.2	1	RES1	0.000	
12	  O4	12.211	56.435	94.744	O.2	1	RES1	0.000	
13	  C5	12.995	52.445	84.125	C.2	1	RES1	0.000	
14	  N5	14.680	50.703	80.016	N.2	1	RES1	0.000	
15	  C6	12.260	52.534	85.294	C.2	1	RES1	0.000	
16	  C7	11.578	51.423	85.799	C.2	1	RES1	0.000	
17	  C8	10.767	51.543	87.083	C.3	1	RES1	0.000	
18	  C9	9.280	51.439	86.814	C.3	1	RES1	0.000	
19	 C10	12.013	52.822	88.845	C.2	1	RES1	0.000	
20	 C11	12.146	54.216	89.431	C.3	1	RES1	0.000	
21	 C12	13.299	54.997	88.813	C.3	1	RES1	0.000	
22	 C13	14.493	54.591	89.682	C.3	1	RES1	0.000	
23	 C14	13.890	54.482	91.056	C.3	1	RES1	0.000	
24	 C15	11.511	53.949	91.815	C.2	1	RES1	0.000	
25	 C16	11.973	53.926	93.308	C.3	1	RES1	0.000	
26	 C17	11.152	55.858	94.686	C.2	1	RES1	0.000	
27	 C18	9.896	56.374	95.369	C.3	1	RES1	0.000	
28	 C53	12.227	52.496	93.836	C.3	1	RES1	0.000	
29	 C54	12.635	52.501	95.325	C.3	1	RES1	0.000	
30	 C55	13.423	51.863	93.064	C.3	1	RES1	0.000	
31	 C56	11.011	51.546	93.672	C.3	1	RES1	0.000	
32	 C57	11.651	50.227	85.069	C.2	1	RES1	0.000	
33	 C58	12.402	50.158	83.900	C.2	1	RES1	0.000	
34	 C59	15.705	51.242	80.568	C.2	1	RES1	0.000	
@<TRIPOS>BOND
1 1 4 1
2 2 17 1
3 2 19 1
4 3 19 2
5 4 8 ar
6 4 14 ar
7 7 8 ar
8 7 34 ar
9 8 11 1
10 11 13 ar
11 11 33 ar
12 13 15 ar
13 14 34 ar
14 15 16 ar
15 16 17 1
16 17 18 1
17 19 20 1
18 5 20 1
19 20 21 1
20 21 22 1
21 6 22 1
22 22 23 1
23 5 23 1
24 5 24 1
25 10 24 2
26 24 25 1
27 9 25 1
28 25 28 1
29 9 26 1
30 12 26 2
31 26 27 1
32 28 29 1
33 28 30 1
34 28 31 1
35 16 32 ar
36 32 33 ar
@<TRIPOS>SUBSTRUCTURE
1	RES1	1	GROUP	1 ****	RES
