# created with PyMOL 2.5.2
@<TRIPOS>MOLECULE
ER_4W9H_E3ligase
34 36 1                 
SMALL
USER_CHARGES
@<TRIPOS>ATOM
1	  S1	15.580	51.487	82.089	S.2	1	RES1	0.000	
2	  N2	11.013	54.595	94.069	N.pl3	1	RES1	0.000	
3	  N3	12.587	54.035	90.899	N.pl3	1	RES1	0.000	
4	  O3	12.256	56.460	94.633	O.2	1	RES1	0.000	
5	  N4	11.197	53.017	87.613	N.pl3	1	RES1	0.000	
6	  O4	10.441	53.692	91.593	O.2	1	RES1	0.000	
7	  N5	14.698	50.390	79.959	N.2	1	RES1	0.000	
8	  O5	14.085	56.532	90.233	O.3	1	RES1	0.000	
9	  O6	12.318	51.729	89.163	O.2	1	RES1	0.000	
10	  C8	9.995	56.322	95.403	C.3	1	RES1	0.000	
11	  C9	11.235	55.824	94.678	C.2	1	RES1	0.000	
12	 C10	12.082	53.840	93.360	C.3	1	RES1	0.000	
13	 C11	11.613	53.861	91.893	C.2	1	RES1	0.000	
14	 C12	13.972	54.311	91.257	C.3	1	RES1	0.000	
15	 C13	14.475	55.163	90.096	C.3	1	RES1	0.000	
16	 C14	13.770	54.571	88.891	C.3	1	RES1	0.000	
17	 C15	12.379	54.134	89.455	C.3	1	RES1	0.000	
18	 C16	11.994	52.827	88.723	C.2	1	RES1	0.000	
19	 C17	10.672	51.898	86.836	C.3	1	RES1	0.000	
20	 C18	9.192	52.141	86.476	C.3	1	RES1	0.000	
21	 C19	11.535	51.678	85.587	C.2	1	RES1	0.000	
22	 C20	12.409	52.677	85.098	C.2	1	RES1	0.000	
23	 C21	13.174	52.450	83.972	C.2	1	RES1	0.000	
24	 C22	13.084	51.242	83.270	C.2	1	RES1	0.000	
25	 C23	13.950	51.003	82.086	C.2	1	RES1	0.000	
26	 C24	13.625	50.471	80.850	C.2	1	RES1	0.000	
27	 C25	12.311	49.953	80.399	C.3	1	RES1	0.000	
28	 C26	15.755	50.892	80.512	C.2	1	RES1	0.000	
29	 C27	12.202	50.272	83.739	C.2	1	RES1	0.000	
30	 C28	11.435	50.499	84.873	C.2	1	RES1	0.000	
31	 C29	12.319	52.418	93.946	C.3	1	RES1	0.000	
32	 C30	11.064	51.565	93.795	C.3	1	RES1	0.000	
33	 C31	13.466	51.724	93.191	C.3	1	RES1	0.000	
34	 C32	12.678	52.473	95.458	C.3	1	RES1	0.000	
@<TRIPOS>BOND
1 1 25 ar
2 1 28 ar
3 2 11 1
4 4 11 2
5 10 11 1
6 2 12 1
7 12 13 1
8 12 31 1
9 3 13 1
10 6 13 2
11 3 14 1
12 14 15 1
13 8 15 1
14 15 16 1
15 16 17 1
16 3 17 1
17 17 18 1
18 5 18 1
19 9 18 2
20 5 19 1
21 19 20 1
22 19 21 1
23 21 22 ar
24 21 30 ar
25 22 23 ar
26 23 24 ar
27 24 25 1
28 24 29 ar
29 25 26 ar
30 7 26 ar
31 26 27 1
32 7 28 ar
33 29 30 ar
34 31 32 1
35 31 33 1
36 31 34 1
@<TRIPOS>SUBSTRUCTURE
1	RES1	1	GROUP	1 ****	RES
