# created with PyMOL 2.5.2
@<TRIPOS>MOLECULE
ER_5NVV_E3ligase
35 37 1                 
SMALL
USER_CHARGES
@<TRIPOS>ATOM
1	  S1	15.987	51.709	82.289	S.2	1	RES1	0.000	
2	  N2	11.386	54.465	94.283	N.pl3	1	RES1	0.000	
3	  O2	10.357	57.529	96.054	O.3	1	RES1	0.000	
4	  N3	12.958	54.118	91.061	N.pl3	1	RES1	0.000	
5	  O3	12.509	56.436	94.752	O.2	1	RES1	0.000	
6	  N4	11.533	53.176	87.790	N.pl3	1	RES1	0.000	
7	  O4	10.846	53.633	91.772	O.2	1	RES1	0.000	
8	  N5	15.134	50.448	80.217	N.2	1	RES1	0.000	
9	  O5	14.362	56.695	90.529	O.3	1	RES1	0.000	
10	  O6	12.750	51.931	89.322	O.2	1	RES1	0.000	
11	  C7	10.321	56.145	95.638	C.3	1	RES1	0.000	
12	  C8	11.523	55.728	94.836	C.2	1	RES1	0.000	
13	  C9	12.468	53.796	93.524	C.3	1	RES1	0.000	
14	 C10	11.998	53.848	92.065	C.2	1	RES1	0.000	
15	 C11	14.310	54.452	91.421	C.3	1	RES1	0.000	
16	 C12	14.783	55.351	90.305	C.3	1	RES1	0.000	
17	 C13	14.067	54.787	89.107	C.3	1	RES1	0.000	
18	 C14	12.739	54.302	89.615	C.3	1	RES1	0.000	
19	 C15	12.377	53.020	88.877	C.2	1	RES1	0.000	
20	 C16	11.023	52.038	87.007	C.3	1	RES1	0.000	
21	 C17	9.560	52.248	86.662	C.3	1	RES1	0.000	
22	 C18	11.883	51.837	85.768	C.2	1	RES1	0.000	
23	 C19	11.816	50.618	85.097	C.2	1	RES1	0.000	
24	 C20	12.621	50.398	83.947	C.2	1	RES1	0.000	
25	 C21	13.499	51.394	83.466	C.2	1	RES1	0.000	
26	 C22	14.342	51.156	82.318	C.2	1	RES1	0.000	
27	 C23	14.070	50.534	81.107	C.2	1	RES1	0.000	
28	 C24	12.774	49.927	80.658	C.3	1	RES1	0.000	
29	 C25	16.156	51.050	80.740	C.2	1	RES1	0.000	
30	 C26	13.563	52.615	84.186	C.2	1	RES1	0.000	
31	 C27	12.772	52.825	85.313	C.2	1	RES1	0.000	
32	 C28	12.786	52.358	94.042	C.3	1	RES1	0.000	
33	 C29	13.847	51.689	93.212	C.3	1	RES1	0.000	
34	 C30	13.283	52.424	95.495	C.3	1	RES1	0.000	
35	 C31	11.511	51.437	94.024	C.3	1	RES1	0.000	
@<TRIPOS>BOND
1 1 26 ar
2 1 29 ar
3 2 12 1
4 2 13 1
5 3 11 1
6 5 12 2
7 11 12 1
8 4 14 1
9 7 14 2
10 13 14 1
11 4 15 1
12 15 16 1
13 9 16 1
14 16 17 1
15 17 18 1
16 4 18 1
17 18 19 1
18 6 19 1
19 10 19 2
20 6 20 1
21 20 21 1
22 20 22 1
23 22 23 ar
24 22 31 ar
25 23 24 ar
26 24 25 ar
27 25 26 1
28 25 30 ar
29 26 27 ar
30 8 27 ar
31 27 28 1
32 8 29 ar
33 30 31 ar
34 13 32 1
35 32 33 1
36 32 34 1
37 32 35 1
@<TRIPOS>SUBSTRUCTURE
1	RES1	1	GROUP	1 ****	RES
