# created with PyMOL 2.5.2
@<TRIPOS>MOLECULE
ER_5NVV_E3ligase
35 37 1                 
SMALL
USER_CHARGES
@<TRIPOS>ATOM
1	  O1	10.229	57.319	96.082	O.3	1	RES1	0.000	
2	  S1	15.892	51.582	82.306	S.2	1	RES1	0.000	
3	  N2	11.354	54.400	94.218	N.pl3	1	RES1	0.000	
4	  O2	12.467	56.301	94.854	O.2	1	RES1	0.000	
5	  N3	13.149	54.171	91.094	N.pl3	1	RES1	0.000	
6	  O3	10.980	53.703	91.599	O.2	1	RES1	0.000	
7	  N4	11.651	53.312	87.828	N.pl3	1	RES1	0.000	
8	  O4	14.396	56.862	90.459	O.3	1	RES1	0.000	
9	  N5	15.033	50.320	80.266	N.2	1	RES1	0.000	
10	  O5	12.723	51.965	89.350	O.2	1	RES1	0.000	
11	  C8	10.162	56.051	95.454	C.3	1	RES1	0.000	
12	  C9	11.448	55.611	94.823	C.2	1	RES1	0.000	
13	 C10	12.467	53.736	93.485	C.3	1	RES1	0.000	
14	 C11	12.130	53.830	91.985	C.2	1	RES1	0.000	
15	 C12	14.497	54.650	91.449	C.3	1	RES1	0.000	
16	 C13	14.901	55.536	90.284	C.3	1	RES1	0.000	
17	 C14	14.221	54.881	89.099	C.3	1	RES1	0.000	
18	 C15	12.920	54.355	89.681	C.3	1	RES1	0.000	
19	 C16	12.503	53.076	88.923	C.2	1	RES1	0.000	
20	 C17	11.056	52.257	87.069	C.3	1	RES1	0.000	
21	 C18	9.600	52.568	86.725	C.3	1	RES1	0.000	
22	 C19	11.847	51.994	85.820	C.2	1	RES1	0.000	
23	 C20	12.754	52.922	85.277	C.2	1	RES1	0.000	
24	 C21	13.499	52.615	84.143	C.2	1	RES1	0.000	
25	 C22	13.400	51.355	83.520	C.2	1	RES1	0.000	
26	 C23	14.236	51.057	82.354	C.2	1	RES1	0.000	
27	 C24	13.945	50.422	81.134	C.2	1	RES1	0.000	
28	 C25	12.644	49.855	80.708	C.3	1	RES1	0.000	
29	 C26	16.077	50.874	80.746	C.2	1	RES1	0.000	
30	 C27	12.528	50.442	84.063	C.2	1	RES1	0.000	
31	 C28	11.795	50.727	85.193	C.2	1	RES1	0.000	
32	 C29	12.764	52.292	93.985	C.3	1	RES1	0.000	
33	 C30	13.827	51.643	93.109	C.3	1	RES1	0.000	
34	 C31	13.337	52.348	95.437	C.3	1	RES1	0.000	
35	 C32	11.521	51.401	94.025	C.3	1	RES1	0.000	
@<TRIPOS>BOND
1 1 11 1
2 2 26 ar
3 2 29 ar
4 3 12 1
5 4 12 2
6 11 12 1
7 3 13 1
8 13 14 1
9 13 32 1
10 5 14 1
11 6 14 2
12 5 15 1
13 15 16 1
14 8 16 1
15 16 17 1
16 17 18 1
17 5 18 1
18 18 19 1
19 7 19 1
20 10 19 2
21 7 20 1
22 20 21 1
23 20 22 1
24 22 23 ar
25 22 31 ar
26 23 24 ar
27 24 25 ar
28 25 26 1
29 25 30 ar
30 26 27 ar
31 9 27 ar
32 27 28 1
33 9 29 ar
34 30 31 ar
35 32 33 1
36 32 34 1
37 32 35 1
@<TRIPOS>SUBSTRUCTURE
1	RES1	1	GROUP	1 ****	RES
