# created with PyMOL 2.5.2
@<TRIPOS>MOLECULE
ER_4W9H_E3ligase
34 36 1                 
SMALL
USER_CHARGES
@<TRIPOS>ATOM
1	  S2	15.563	51.302	82.074	S.2	1	RES1	0.000	
2	  N3	11.008	54.561	94.124	N.pl3	1	RES1	0.000	
3	  N4	12.614	54.092	90.945	N.pl3	1	RES1	0.000	
4	  N5	11.304	53.153	87.609	N.pl3	1	RES1	0.000	
5	  O5	12.249	56.411	94.736	O.2	1	RES1	0.000	
6	  N6	14.603	50.309	79.900	N.2	1	RES1	0.000	
7	  O6	10.490	53.784	91.608	O.2	1	RES1	0.000	
8	  O7	14.066	56.646	90.385	O.3	1	RES1	0.000	
9	  O8	12.353	51.835	89.228	O.2	1	RES1	0.000	
10	 C33	9.971	56.265	95.423	C.3	1	RES1	0.000	
11	 C34	11.207	55.785	94.735	C.2	1	RES1	0.000	
12	 C35	12.066	53.832	93.388	C.3	1	RES1	0.000	
13	 C36	11.639	53.880	91.916	C.2	1	RES1	0.000	
14	 C37	13.980	54.419	91.311	C.3	1	RES1	0.000	
15	 C38	14.480	55.295	90.192	C.3	1	RES1	0.000	
16	 C39	13.793	54.723	88.963	C.3	1	RES1	0.000	
17	 C40	12.460	54.251	89.492	C.3	1	RES1	0.000	
18	 C41	12.072	52.944	88.746	C.2	1	RES1	0.000	
19	 C42	10.747	51.998	86.849	C.3	1	RES1	0.000	
20	 C43	9.276	52.238	86.505	C.3	1	RES1	0.000	
21	 C44	11.577	51.736	85.633	C.2	1	RES1	0.000	
22	 C45	12.478	52.730	85.096	C.2	1	RES1	0.000	
23	 C46	13.205	52.452	83.952	C.2	1	RES1	0.000	
24	 C47	13.059	51.249	83.251	C.2	1	RES1	0.000	
25	 C48	13.865	50.940	82.057	C.2	1	RES1	0.000	
26	 C49	13.534	50.395	80.821	C.2	1	RES1	0.000	
27	 C50	12.217	49.929	80.372	C.3	1	RES1	0.000	
28	 C51	15.693	50.735	80.466	C.2	1	RES1	0.000	
29	 C52	12.206	50.264	83.796	C.2	1	RES1	0.000	
30	 C53	11.480	50.507	84.964	C.2	1	RES1	0.000	
31	 C54	12.293	52.381	93.942	C.3	1	RES1	0.000	
32	 C55	11.001	51.544	93.749	C.3	1	RES1	0.000	
33	 C56	13.425	51.685	93.172	C.3	1	RES1	0.000	
34	 C57	12.653	52.381	95.450	C.3	1	RES1	0.000	
@<TRIPOS>BOND
1 1 25 ar
2 1 28 ar
3 2 11 1
4 2 12 1
5 3 17 1
6 10 11 1
7 5 11 2
8 12 13 1
9 12 31 1
10 3 13 1
11 7 13 2
12 3 14 1
13 14 15 1
14 8 15 1
15 15 16 1
16 16 17 1
17 17 18 1
18 4 18 1
19 9 18 2
20 4 19 1
21 19 20 1
22 19 21 1
23 21 22 ar
24 21 30 ar
25 22 23 ar
26 23 24 ar
27 24 25 1
28 24 29 ar
29 25 26 ar
30 6 26 ar
31 26 27 1
32 6 28 ar
33 29 30 ar
34 31 32 1
35 31 33 1
36 31 34 1
@<TRIPOS>SUBSTRUCTURE
1	RES1	1	GROUP	1 ****	RES
