# created with PyMOL 2.5.2
@<TRIPOS>MOLECULE
ER_4W9H_E3ligase
34 36 1                 
SMALL
USER_CHARGES
@<TRIPOS>ATOM
1	  S2	15.521	51.584	82.062	S.2	1	RES1	0.000	
2	  N4	11.067	54.586	94.147	N.pl3	1	RES1	0.000	
3	  N5	12.486	54.212	90.893	N.pl3	1	RES1	0.000	
4	  O5	12.416	56.382	94.677	O.2	1	RES1	0.000	
5	  N6	11.088	52.887	87.768	N.pl3	1	RES1	0.000	
6	  O6	10.365	53.691	91.638	O.2	1	RES1	0.000	
7	  N7	14.551	50.508	79.952	N.2	1	RES1	0.000	
8	  O7	15.405	55.794	89.631	O.3	1	RES1	0.000	
9	  O8	12.535	51.931	89.276	O.2	1	RES1	0.000	
10	 C32	10.136	56.367	95.459	C.3	1	RES1	0.000	
11	 C33	11.322	55.807	94.751	C.2	1	RES1	0.000	
12	 C34	12.060	53.839	93.361	C.3	1	RES1	0.000	
13	 C35	11.547	53.914	91.877	C.2	1	RES1	0.000	
14	 C36	13.884	54.545	91.087	C.3	1	RES1	0.000	
15	 C37	14.440	54.781	89.681	C.3	1	RES1	0.000	
16	 C38	13.189	55.156	88.864	C.3	1	RES1	0.000	
17	 C39	12.084	54.308	89.486	C.3	1	RES1	0.000	
18	 C40	11.956	52.931	88.856	C.2	1	RES1	0.000	
19	 C41	10.730	51.732	86.991	C.3	1	RES1	0.000	
20	 C42	9.197	51.606	86.753	C.3	1	RES1	0.000	
21	 C43	11.560	51.598	85.725	C.2	1	RES1	0.000	
22	 C44	11.557	50.367	85.039	C.2	1	RES1	0.000	
23	 C45	12.309	50.207	83.865	C.2	1	RES1	0.000	
24	 C46	13.079	51.246	83.343	C.2	1	RES1	0.000	
25	 C47	13.864	51.064	82.132	C.2	1	RES1	0.000	
26	 C48	13.536	50.490	80.892	C.2	1	RES1	0.000	
27	 C49	12.239	49.886	80.489	C.3	1	RES1	0.000	
28	 C50	15.621	51.042	80.463	C.2	1	RES1	0.000	
29	 C51	13.096	52.449	84.046	C.2	1	RES1	0.000	
30	 C52	12.320	52.645	85.213	C.2	1	RES1	0.000	
31	 C53	12.299	52.408	93.861	C.3	1	RES1	0.000	
32	 C54	13.201	51.563	92.902	C.3	1	RES1	0.000	
33	 C55	12.949	52.408	95.225	C.3	1	RES1	0.000	
34	 C56	10.957	51.683	93.980	C.3	1	RES1	0.000	
@<TRIPOS>BOND
1 1 25 ar
2 1 28 ar
3 10 11 1
4 2 11 1
5 4 11 2
6 2 12 1
7 12 13 1
8 12 31 1
9 3 13 1
10 6 13 2
11 3 14 1
12 14 15 1
13 8 15 1
14 15 16 1
15 16 17 1
16 3 17 1
17 17 18 1
18 5 18 1
19 9 18 2
20 5 19 1
21 19 20 1
22 19 21 1
23 21 22 ar
24 21 30 ar
25 22 23 ar
26 23 24 ar
27 24 25 1
28 24 29 ar
29 25 26 ar
30 7 26 ar
31 26 27 1
32 7 28 ar
33 29 30 ar
34 31 32 1
35 31 33 1
36 31 34 1
@<TRIPOS>SUBSTRUCTURE
1	RES1	1	GROUP	1 ****	RES
