# created with PyMOL 2.5.2
@<TRIPOS>MOLECULE
ER_4W9H_E3ligase
34 36 1                 
SMALL
USER_CHARGES
@<TRIPOS>ATOM
1	  O1	12.385	56.292	94.702	O.2	1	RES1	0.000	
2	  S1	15.488	51.363	82.126	S.2	1	RES1	0.000	
3	  O2	10.666	53.611	91.453	O.2	1	RES1	0.000	
4	  N3	11.093	54.488	94.021	N.pl3	1	RES1	0.000	
5	  O3	14.038	56.767	90.064	O.3	1	RES1	0.000	
6	  N4	12.831	54.112	90.915	N.pl3	1	RES1	0.000	
7	  O4	12.358	51.823	89.206	O.2	1	RES1	0.000	
8	  N5	11.259	53.135	87.671	N.pl3	1	RES1	0.000	
9	  N6	14.538	50.240	80.019	N.2	1	RES1	0.000	
10	 C11	10.046	56.266	95.224	C.3	1	RES1	0.000	
11	 C12	11.289	55.680	94.628	C.2	1	RES1	0.000	
12	 C13	12.160	53.741	93.333	C.3	1	RES1	0.000	
13	 C14	11.789	53.808	91.838	C.2	1	RES1	0.000	
14	 C15	14.154	54.645	91.218	C.3	1	RES1	0.000	
15	 C16	14.543	55.432	89.954	C.3	1	RES1	0.000	
16	 C17	13.822	54.696	88.837	C.3	1	RES1	0.000	
17	 C18	12.536	54.209	89.483	C.3	1	RES1	0.000	
18	 C19	12.093	52.936	88.775	C.2	1	RES1	0.000	
19	 C20	10.667	52.052	86.923	C.3	1	RES1	0.000	
20	 C21	9.199	52.309	86.626	C.3	1	RES1	0.000	
21	 C22	11.476	51.803	85.652	C.2	1	RES1	0.000	
22	 C23	11.347	50.585	84.973	C.2	1	RES1	0.000	
23	 C24	12.102	50.326	83.805	C.2	1	RES1	0.000	
24	 C25	12.979	51.282	83.331	C.2	1	RES1	0.000	
25	 C26	13.809	50.969	82.133	C.2	1	RES1	0.000	
26	 C27	13.476	50.365	80.928	C.2	1	RES1	0.000	
27	 C28	12.153	49.829	80.483	C.3	1	RES1	0.000	
28	 C29	15.626	50.747	80.552	C.2	1	RES1	0.000	
29	 C30	13.137	52.480	84.006	C.2	1	RES1	0.000	
30	 C31	12.381	52.749	85.151	C.2	1	RES1	0.000	
31	 C32	12.280	52.270	93.886	C.3	1	RES1	0.000	
32	 C33	12.677	52.298	95.368	C.3	1	RES1	0.000	
33	 C34	13.288	51.425	93.119	C.3	1	RES1	0.000	
34	 C35	10.884	51.579	93.846	C.3	1	RES1	0.000	
@<TRIPOS>BOND
1 1 11 2
2 2 25 ar
3 2 28 ar
4 10 11 1
5 4 11 1
6 4 12 1
7 12 13 1
8 12 31 1
9 3 13 2
10 6 13 1
11 6 14 1
12 14 15 1
13 5 15 1
14 15 16 1
15 16 17 1
16 6 17 1
17 17 18 1
18 7 18 2
19 8 18 1
20 8 19 1
21 19 20 1
22 19 21 1
23 21 22 ar
24 21 30 ar
25 22 23 ar
26 23 24 ar
27 24 25 1
28 24 29 ar
29 25 26 ar
30 9 26 ar
31 26 27 1
32 9 28 ar
33 29 30 ar
34 31 32 1
35 31 33 1
36 31 34 1
@<TRIPOS>SUBSTRUCTURE
1	RES1	1	GROUP	1 ****	RES
