# created with PyMOL 2.5.2
@<TRIPOS>MOLECULE
ER_4W9H_E3ligase
34 36 1                 
SMALL
USER_CHARGES
@<TRIPOS>ATOM
1	  O1	12.463	56.280	94.688	O.2	1	RES1	0.000	
2	  S1	15.496	51.467	82.204	S.2	1	RES1	0.000	
3	  O2	10.564	53.678	91.445	O.2	1	RES1	0.000	
4	  N3	11.092	54.543	94.016	N.pl3	1	RES1	0.000	
5	  O3	14.203	56.688	90.224	O.3	1	RES1	0.000	
6	  N4	12.752	54.107	90.867	N.pl3	1	RES1	0.000	
7	  O4	12.406	51.866	89.301	O.2	1	RES1	0.000	
8	  N5	11.174	53.042	87.729	N.pl3	1	RES1	0.000	
9	  N6	14.563	50.367	80.064	N.2	1	RES1	0.000	
10	  C9	10.137	56.362	95.255	C.3	1	RES1	0.000	
11	 C10	11.366	55.740	94.637	C.2	1	RES1	0.000	
12	 C11	12.118	53.773	93.284	C.3	1	RES1	0.000	
13	 C12	11.725	53.856	91.774	C.2	1	RES1	0.000	
14	 C13	14.130	54.411	91.125	C.3	1	RES1	0.000	
15	 C14	14.556	55.283	89.935	C.3	1	RES1	0.000	
16	 C15	13.735	54.753	88.794	C.3	1	RES1	0.000	
17	 C16	12.433	54.270	89.433	C.3	1	RES1	0.000	
18	 C17	12.038	52.921	88.829	C.2	1	RES1	0.000	
19	 C18	10.644	51.910	86.976	C.3	1	RES1	0.000	
20	 C19	9.128	51.943	86.794	C.3	1	RES1	0.000	
21	 C20	11.458	51.682	85.719	C.2	1	RES1	0.000	
22	 C21	12.320	52.687	85.183	C.2	1	RES1	0.000	
23	 C22	13.059	52.444	84.034	C.2	1	RES1	0.000	
24	 C23	12.972	51.207	83.360	C.2	1	RES1	0.000	
25	 C24	13.806	50.975	82.167	C.2	1	RES1	0.000	
26	 C25	13.521	50.424	80.932	C.2	1	RES1	0.000	
27	 C26	12.200	49.929	80.415	C.3	1	RES1	0.000	
28	 C27	15.664	50.894	80.581	C.2	1	RES1	0.000	
29	 C28	12.148	50.231	83.888	C.2	1	RES1	0.000	
30	 C29	11.372	50.471	85.026	C.2	1	RES1	0.000	
31	 C30	12.293	52.324	93.802	C.3	1	RES1	0.000	
32	 C31	13.198	51.479	92.892	C.3	1	RES1	0.000	
33	 C32	12.859	52.332	95.228	C.3	1	RES1	0.000	
34	 C33	10.907	51.623	93.841	C.3	1	RES1	0.000	
@<TRIPOS>BOND
1 1 11 2
2 2 25 ar
3 2 28 ar
4 4 11 1
5 10 11 1
6 4 12 1
7 12 13 1
8 12 31 1
9 3 13 2
10 6 13 1
11 6 14 1
12 14 15 1
13 5 15 1
14 15 16 1
15 16 17 1
16 6 17 1
17 17 18 1
18 7 18 2
19 8 18 1
20 8 19 1
21 19 20 1
22 19 21 1
23 21 22 ar
24 21 30 ar
25 22 23 ar
26 23 24 ar
27 24 25 1
28 24 29 ar
29 25 26 ar
30 9 26 ar
31 26 27 1
32 9 28 ar
33 29 30 ar
34 31 32 1
35 31 33 1
36 31 34 1
@<TRIPOS>SUBSTRUCTURE
1	RES1	1	GROUP	1 ****	RES
