# created with PyMOL 2.5.2
@<TRIPOS>MOLECULE
ER_4W9H_E3ligase
34 36 1                 
SMALL
USER_CHARGES
@<TRIPOS>ATOM
1	  O1	12.434	56.326	94.710	O.2	1	RES1	0.000	
2	  S1	15.522	51.349	82.061	S.2	1	RES1	0.000	
3	  O2	10.451	53.643	91.597	O.2	1	RES1	0.000	
4	  N3	11.120	54.534	94.114	N.pl3	1	RES1	0.000	
5	  O3	14.072	56.673	90.408	O.3	1	RES1	0.000	
6	  N4	12.583	54.108	90.878	N.pl3	1	RES1	0.000	
7	  O4	12.286	51.912	89.159	O.2	1	RES1	0.000	
8	  N5	11.220	53.170	87.561	N.pl3	1	RES1	0.000	
9	  N6	14.565	50.266	79.926	N.2	1	RES1	0.000	
10	  C9	10.166	56.277	95.483	C.3	1	RES1	0.000	
11	 C10	11.366	55.739	94.717	C.2	1	RES1	0.000	
12	 C11	12.098	53.778	93.341	C.3	1	RES1	0.000	
13	 C12	11.644	53.837	91.870	C.2	1	RES1	0.000	
14	 C13	13.966	54.385	91.241	C.3	1	RES1	0.000	
15	 C14	14.440	55.310	90.132	C.3	1	RES1	0.000	
16	 C15	13.724	54.802	88.916	C.3	1	RES1	0.000	
17	 C16	12.376	54.291	89.430	C.3	1	RES1	0.000	
18	 C17	12.007	53.004	88.682	C.2	1	RES1	0.000	
19	 C18	10.683	52.051	86.815	C.3	1	RES1	0.000	
20	 C19	9.213	52.265	86.433	C.3	1	RES1	0.000	
21	 C20	11.520	51.768	85.574	C.2	1	RES1	0.000	
22	 C21	12.423	52.730	85.049	C.2	1	RES1	0.000	
23	 C22	13.175	52.388	83.919	C.2	1	RES1	0.000	
24	 C23	13.086	51.143	83.288	C.2	1	RES1	0.000	
25	 C24	13.867	50.889	82.080	C.2	1	RES1	0.000	
26	 C25	13.528	50.314	80.862	C.2	1	RES1	0.000	
27	 C26	12.215	49.768	80.449	C.3	1	RES1	0.000	
28	 C27	15.641	50.772	80.444	C.2	1	RES1	0.000	
29	 C28	12.170	50.239	83.799	C.2	1	RES1	0.000	
30	 C29	11.420	50.532	84.922	C.2	1	RES1	0.000	
31	 C30	12.332	52.324	93.880	C.3	1	RES1	0.000	
32	 C31	13.254	51.534	92.964	C.3	1	RES1	0.000	
33	 C32	12.965	52.404	95.284	C.3	1	RES1	0.000	
34	 C33	10.984	51.556	94.001	C.3	1	RES1	0.000	
@<TRIPOS>BOND
1 1 11 2
2 2 25 ar
3 2 28 ar
4 4 11 1
5 10 11 1
6 4 12 1
7 12 13 1
8 12 31 1
9 3 13 2
10 6 13 1
11 6 14 1
12 14 15 1
13 5 15 1
14 15 16 1
15 16 17 1
16 6 17 1
17 17 18 1
18 7 18 2
19 8 18 1
20 8 19 1
21 19 20 1
22 19 21 1
23 21 22 ar
24 21 30 ar
25 22 23 ar
26 23 24 ar
27 24 25 1
28 24 29 ar
29 25 26 ar
30 9 26 ar
31 26 27 1
32 9 28 ar
33 29 30 ar
34 31 32 1
35 31 33 1
36 31 34 1
@<TRIPOS>SUBSTRUCTURE
1	RES1	1	GROUP	1 ****	RES
