# created with PyMOL 2.5.2
@<TRIPOS>MOLECULE
ER_4W9H_E3ligase
34 36 1                 
SMALL
USER_CHARGES
@<TRIPOS>ATOM
1	  S1	15.511	51.474	82.146	S.2	1	RES1	0.000	
2	  N2	11.081	54.535	94.006	N.pl3	1	RES1	0.000	
3	  N3	12.769	54.101	90.863	N.pl3	1	RES1	0.000	
4	  O3	12.447	56.275	94.656	O.2	1	RES1	0.000	
5	  N4	11.169	53.082	87.705	N.pl3	1	RES1	0.000	
6	  O4	10.594	53.674	91.424	O.2	1	RES1	0.000	
7	  N5	14.521	50.447	80.046	N.2	1	RES1	0.000	
8	  O5	14.131	56.640	89.988	O.3	1	RES1	0.000	
9	  O6	12.319	51.788	89.226	O.2	1	RES1	0.000	
10	 C25	10.127	56.393	95.258	C.3	1	RES1	0.000	
11	 C26	11.328	55.732	94.641	C.2	1	RES1	0.000	
12	 C27	12.106	53.770	93.291	C.3	1	RES1	0.000	
13	 C28	11.739	53.850	91.775	C.2	1	RES1	0.000	
14	 C29	14.121	54.498	91.158	C.3	1	RES1	0.000	
15	 C30	14.558	55.289	89.926	C.3	1	RES1	0.000	
16	 C31	13.804	54.602	88.796	C.3	1	RES1	0.000	
17	 C32	12.479	54.217	89.447	C.3	1	RES1	0.000	
18	 C33	11.980	52.920	88.818	C.2	1	RES1	0.000	
19	 C34	10.614	51.970	86.935	C.3	1	RES1	0.000	
20	 C35	9.141	52.223	86.621	C.3	1	RES1	0.000	
21	 C36	11.471	51.714	85.723	C.2	1	RES1	0.000	
22	 C37	12.382	52.655	85.227	C.2	1	RES1	0.000	
23	 C38	13.140	52.420	84.097	C.2	1	RES1	0.000	
24	 C39	13.056	51.204	83.418	C.2	1	RES1	0.000	
25	 C40	13.841	50.990	82.187	C.2	1	RES1	0.000	
26	 C41	13.495	50.448	80.962	C.2	1	RES1	0.000	
27	 C42	12.216	49.873	80.562	C.3	1	RES1	0.000	
28	 C43	15.626	50.938	80.545	C.2	1	RES1	0.000	
29	 C44	12.113	50.263	83.877	C.2	1	RES1	0.000	
30	 C45	11.354	50.517	85.013	C.2	1	RES1	0.000	
31	 C46	12.278	52.310	93.829	C.3	1	RES1	0.000	
32	 C47	13.233	51.464	92.958	C.3	1	RES1	0.000	
33	 C48	12.842	52.335	95.244	C.3	1	RES1	0.000	
34	 C49	10.923	51.608	93.868	C.3	1	RES1	0.000	
@<TRIPOS>BOND
1 1 25 ar
2 1 28 ar
3 2 11 1
4 2 12 1
5 3 17 1
6 10 11 1
7 4 11 2
8 12 13 1
9 12 31 1
10 3 13 1
11 6 13 2
12 3 14 1
13 14 15 1
14 8 15 1
15 15 16 1
16 16 17 1
17 17 18 1
18 5 18 1
19 9 18 2
20 5 19 1
21 19 20 1
22 19 21 1
23 21 22 ar
24 21 30 ar
25 22 23 ar
26 23 24 ar
27 24 25 1
28 24 29 ar
29 25 26 ar
30 7 26 ar
31 26 27 1
32 7 28 ar
33 29 30 ar
34 31 32 1
35 31 33 1
36 31 34 1
@<TRIPOS>SUBSTRUCTURE
1	RES1	1	GROUP	1 ****	RES
