# created with PyMOL 2.5.2
@<TRIPOS>MOLECULE
BTK_6H0G_E3ligase
20 22 1                 
SMALL
USER_CHARGES
@<TRIPOS>ATOM
1	  O3	2.797	53.776	-82.844	O.2	1	RES1	0.000	
2	  O4	3.696	49.647	-77.430	O.3	1	RES1	0.000	
3	  O5	0.191	50.477	-80.223	O.2	1	RES1	0.000	
4	  O6	0.450	49.820	-82.229	O.2	1	RES1	0.000	
5	  N7	1.958	54.457	-85.595	N.pl3	1	RES1	0.000	
6	  N8	1.737	51.810	-82.118	N.2	1	RES1	0.000	
7	  N9	1.976	50.077	-78.868	N.pl3	1	RES1	0.000	
8	 C30	1.323	53.202	-85.450	C.2	1	RES1	0.000	
9	 C31	0.510	52.645	-86.465	C.2	1	RES1	0.000	
10	 C32	-0.165	51.461	-86.281	C.2	1	RES1	0.000	
11	 C33	-0.104	50.789	-85.057	C.2	1	RES1	0.000	
12	 C34	0.668	51.334	-84.060	C.2	1	RES1	0.000	
13	 C35	1.338	52.498	-84.239	C.2	1	RES1	0.000	
14	 C36	2.075	52.800	-83.011	C.2	1	RES1	0.000	
15	 C37	2.245	51.665	-80.741	C.3	1	RES1	0.000	
16	 C38	3.718	51.253	-80.659	C.3	1	RES1	0.000	
17	 C39	4.142	51.159	-79.224	C.3	1	RES1	0.000	
18	 C40	3.266	50.200	-78.422	C.3	1	RES1	0.000	
19	 C41	1.391	50.666	-79.955	C.2	1	RES1	0.000	
20	 C42	0.915	50.860	-82.694	C.2	1	RES1	0.000	
@<TRIPOS>BOND
1 1 14 2
2 2 18 1
3 5 8 1
4 8 9 ar
5 8 13 ar
6 9 10 ar
7 10 11 ar
8 11 12 ar
9 12 13 ar
10 12 20 ar
11 13 14 ar
12 6 14 ar
13 6 15 1
14 15 16 1
15 15 19 1
16 16 17 1
17 17 18 1
18 7 18 1
19 3 19 2
20 7 19 1
21 4 20 2
22 6 20 ar
@<TRIPOS>SUBSTRUCTURE
1	RES1	1	GROUP	1 ****	RES
