# created with PyMOL 2.5.2
@<TRIPOS>MOLECULE
ER_4W9H_E3ligase
33 35 1                 
SMALL
USER_CHARGES
@<TRIPOS>ATOM
1	  O1	12.509	56.346	94.691	O.2	1	RES1	0.000	
2	  S1	15.510	51.496	82.126	S.2	1	RES1	0.000	
3	  N2	11.179	54.567	94.114	N.pl3	1	RES1	0.000	
4	  O2	10.466	53.796	91.614	O.2	1	RES1	0.000	
5	  N3	12.583	54.060	90.880	N.pl3	1	RES1	0.000	
6	  O3	14.117	56.592	90.284	O.3	1	RES1	0.000	
7	  N4	11.155	53.099	87.585	N.pl3	1	RES1	0.000	
8	  O4	12.271	51.823	89.169	O.2	1	RES1	0.000	
9	  N5	14.614	50.312	80.006	N.2	1	RES1	0.000	
10	  C9	10.263	56.363	95.461	C.3	1	RES1	0.000	
11	 C10	11.431	55.796	94.715	C.2	1	RES1	0.000	
12	 C11	12.143	53.810	93.348	C.3	1	RES1	0.000	
13	 C12	11.655	53.868	91.883	C.2	1	RES1	0.000	
14	 C13	14.000	54.351	91.191	C.3	1	RES1	0.000	
15	 C14	14.462	55.232	90.046	C.3	1	RES1	0.000	
16	 C15	13.682	54.699	88.851	C.3	1	RES1	0.000	
17	 C16	12.350	54.233	89.425	C.3	1	RES1	0.000	
18	 C17	11.969	52.936	88.697	C.2	1	RES1	0.000	
19	 C18	10.656	51.971	86.859	C.3	1	RES1	0.000	
20	 C19	11.462	51.700	85.587	C.2	1	RES1	0.000	
21	 C20	11.384	50.465	84.944	C.2	1	RES1	0.000	
22	 C21	12.180	50.225	83.805	C.2	1	RES1	0.000	
23	 C22	13.024	51.205	83.293	C.2	1	RES1	0.000	
24	 C23	13.867	50.960	82.117	C.2	1	RES1	0.000	
25	 C24	13.560	50.367	80.889	C.2	1	RES1	0.000	
26	 C25	12.272	49.832	80.442	C.3	1	RES1	0.000	
27	 C26	15.695	50.866	80.511	C.2	1	RES1	0.000	
28	 C27	13.092	52.449	83.950	C.2	1	RES1	0.000	
29	 C28	12.320	52.692	85.084	C.2	1	RES1	0.000	
30	 C29	12.322	52.362	93.884	C.3	1	RES1	0.000	
31	 C30	13.244	51.532	92.972	C.3	1	RES1	0.000	
32	 C31	12.955	52.416	95.296	C.3	1	RES1	0.000	
33	 C32	10.980	51.619	93.992	C.3	1	RES1	0.000	
@<TRIPOS>BOND
1 1 11 2
2 2 24 ar
3 2 27 ar
4 3 11 1
5 10 11 1
6 3 12 1
7 12 13 1
8 12 30 1
9 4 13 2
10 5 13 1
11 5 14 1
12 14 15 1
13 6 15 1
14 15 16 1
15 16 17 1
16 5 17 1
17 17 18 1
18 7 18 1
19 8 18 2
20 7 19 1
21 19 20 1
22 20 21 ar
23 20 29 ar
24 21 22 ar
25 22 23 ar
26 23 24 1
27 23 28 ar
28 24 25 ar
29 9 25 ar
30 25 26 1
31 9 27 ar
32 28 29 ar
33 30 31 1
34 30 32 1
35 30 33 1
@<TRIPOS>SUBSTRUCTURE
1	RES1	1	GROUP	1 ****	RES
