# created with PyMOL 2.5.2
@<TRIPOS>MOLECULE
BRD4_5NVV_E3ligase
34 36 1                 
SMALL
USER_CHARGES
@<TRIPOS>ATOM
1	  C1	12.762	49.956	80.720	C.3	1	RES1	0.000	
2	  N1	11.369	53.125	87.839	N.pl3	1	RES1	0.000	
3	  O1	12.721	51.876	89.270	O.2	1	RES1	0.000	
4	  C2	14.016	50.551	81.156	C.2	1	RES1	0.000	
5	  N2	12.854	54.131	91.026	N.pl3	1	RES1	0.000	
6	  O2	14.510	56.544	90.531	O.3	1	RES1	0.000	
7	  S2	15.960	51.771	82.310	S.2	1	RES1	0.000	
8	  C3	14.313	51.160	82.371	C.2	1	RES1	0.000	
9	  N3	11.476	54.525	94.311	N.pl3	1	RES1	0.000	
10	  O3	10.758	53.687	91.835	O.2	1	RES1	0.000	
11	  C4	13.483	51.381	83.545	C.2	1	RES1	0.000	
12	  O4	12.703	56.458	94.707	O.2	1	RES1	0.000	
13	  C5	13.468	52.606	84.226	C.2	1	RES1	0.000	
14	  O5	10.716	57.583	96.197	O.3	1	RES1	0.000	
15	  C6	12.667	52.799	85.359	C.2	1	RES1	0.000	
16	  C7	11.824	51.786	85.818	C.2	1	RES1	0.000	
17	  C8	10.974	51.980	87.013	C.3	1	RES1	0.000	
18	  C9	12.241	52.946	88.914	C.2	1	RES1	0.000	
19	 C10	12.595	54.284	89.594	C.3	1	RES1	0.000	
20	 C11	13.918	54.808	89.009	C.3	1	RES1	0.000	
21	 C12	14.777	55.207	90.200	C.3	1	RES1	0.000	
22	 N12	15.068	50.533	80.237	N.2	1	RES1	0.000	
23	 C13	14.292	54.276	91.303	C.3	1	RES1	0.000	
24	 C14	11.963	53.881	92.044	C.2	1	RES1	0.000	
25	 C15	12.484	53.835	93.484	C.3	1	RES1	0.000	
26	 C16	11.667	55.778	94.840	C.2	1	RES1	0.000	
27	 C17	10.471	56.308	95.613	C.3	1	RES1	0.000	
28	 C42	12.834	52.401	93.971	C.3	1	RES1	0.000	
29	 C43	11.563	51.519	94.167	C.3	1	RES1	0.000	
30	 C44	13.538	52.439	95.319	C.3	1	RES1	0.000	
31	 C45	13.739	51.688	92.973	C.3	1	RES1	0.000	
32	 C46	11.844	50.544	85.144	C.2	1	RES1	0.000	
33	 C47	12.670	50.345	84.030	C.2	1	RES1	0.000	
34	 C48	16.117	51.156	80.754	C.2	1	RES1	0.000	
@<TRIPOS>BOND
1 1 4 1
2 2 17 1
3 2 18 1
4 3 18 2
5 4 8 ar
6 7 8 ar
7 7 34 ar
8 8 11 1
9 11 13 ar
10 11 33 ar
11 13 15 ar
12 15 16 ar
13 16 17 1
14 5 19 1
15 18 19 1
16 19 20 1
17 20 21 1
18 6 21 1
19 21 23 1
20 4 22 ar
21 22 34 ar
22 5 23 1
23 5 24 1
24 10 24 2
25 24 25 1
26 9 25 1
27 25 28 1
28 9 26 1
29 12 26 2
30 26 27 1
31 14 27 1
32 28 29 1
33 28 30 1
34 28 31 1
35 16 32 ar
36 32 33 ar
@<TRIPOS>SUBSTRUCTURE
1	RES1	1	GROUP	1 ****	RES
