# created with PyMOL 2.5.2
@<TRIPOS>MOLECULE
BRD4_5NVV_E3ligase
34 36 1                 
SMALL
USER_CHARGES
@<TRIPOS>ATOM
1	  C1	12.779	49.988	80.694	C.3	1	RES1	0.000	
2	  N1	11.348	53.067	87.848	N.pl3	1	RES1	0.000	
3	  O1	12.683	51.848	89.295	O.2	1	RES1	0.000	
4	  C2	14.051	50.628	81.152	C.2	1	RES1	0.000	
5	  N2	12.890	54.118	91.013	N.pl3	1	RES1	0.000	
6	  O2	14.479	56.542	90.432	O.3	1	RES1	0.000	
7	  S2	15.940	51.746	82.410	S.2	1	RES1	0.000	
8	  C3	14.315	51.193	82.398	C.2	1	RES1	0.000	
9	  N3	11.502	54.536	94.295	N.pl3	1	RES1	0.000	
10	  O3	10.798	53.676	91.811	O.2	1	RES1	0.000	
11	  C4	13.480	51.357	83.580	C.2	1	RES1	0.000	
12	  O4	12.716	56.470	94.681	O.2	1	RES1	0.000	
13	  C5	12.626	50.343	84.016	C.2	1	RES1	0.000	
14	  O5	10.734	57.634	96.183	O.3	1	RES1	0.000	
15	  C6	11.806	50.530	85.147	C.2	1	RES1	0.000	
16	  C7	11.807	51.737	85.836	C.2	1	RES1	0.000	
17	  C8	10.943	51.947	87.060	C.3	1	RES1	0.000	
18	  C9	12.229	52.925	88.925	C.2	1	RES1	0.000	
19	 C10	12.617	54.253	89.573	C.3	1	RES1	0.000	
20	 C11	13.952	54.742	88.959	C.3	1	RES1	0.000	
21	 C12	14.765	55.183	90.146	C.3	1	RES1	0.000	
22	 N12	15.101	50.658	80.237	N.2	1	RES1	0.000	
23	 C13	14.305	54.285	91.266	C.3	1	RES1	0.000	
24	 C14	11.988	53.882	92.035	C.2	1	RES1	0.000	
25	 C15	12.506	53.843	93.489	C.3	1	RES1	0.000	
26	 C16	11.692	55.790	94.817	C.2	1	RES1	0.000	
27	 C17	10.490	56.332	95.594	C.3	1	RES1	0.000	
28	 C44	12.798	52.392	93.989	C.3	1	RES1	0.000	
29	 C45	11.514	51.557	94.209	C.3	1	RES1	0.000	
30	 C46	13.590	52.426	95.336	C.3	1	RES1	0.000	
31	 C47	13.684	51.648	92.972	C.3	1	RES1	0.000	
32	 C48	12.628	52.768	85.374	C.2	1	RES1	0.000	
33	 C49	13.464	52.583	84.262	C.2	1	RES1	0.000	
34	 C50	16.135	51.242	80.802	C.2	1	RES1	0.000	
@<TRIPOS>BOND
1 1 4 1
2 2 17 1
3 2 18 1
4 3 18 2
5 4 8 ar
6 7 8 ar
7 7 34 ar
8 8 11 1
9 11 13 ar
10 11 33 ar
11 13 15 ar
12 15 16 ar
13 16 17 1
14 5 19 1
15 18 19 1
16 19 20 1
17 20 21 1
18 6 21 1
19 21 23 1
20 4 22 ar
21 22 34 ar
22 5 23 1
23 5 24 1
24 10 24 2
25 24 25 1
26 9 25 1
27 25 28 1
28 9 26 1
29 12 26 2
30 26 27 1
31 14 27 1
32 28 29 1
33 28 30 1
34 28 31 1
35 16 32 ar
36 32 33 ar
@<TRIPOS>SUBSTRUCTURE
1	RES1	1	GROUP	1 ****	RES
