# created with PyMOL 2.5.2
@<TRIPOS>MOLECULE
BRD4_5NVV_E3ligase
34 36 1                 
SMALL
USER_CHARGES
@<TRIPOS>ATOM
1	  C1	12.935	50.039	80.625	C.3	1	RES1	0.000	
2	  N1	11.282	52.873	87.894	N.pl3	1	RES1	0.000	
3	  O1	12.883	51.975	89.244	O.2	1	RES1	0.000	
4	  C2	14.146	50.743	81.153	C.2	1	RES1	0.000	
5	  N2	12.705	54.236	90.989	N.pl3	1	RES1	0.000	
6	  O2	15.752	55.601	89.786	O.3	1	RES1	0.000	
7	  S2	15.850	52.035	82.519	S.2	1	RES1	0.000	
8	  C3	14.301	51.297	82.414	C.2	1	RES1	0.000	
9	  N3	11.498	54.584	94.368	N.pl3	1	RES1	0.000	
10	  O3	10.674	53.740	91.920	O.2	1	RES1	0.000	
11	  C4	13.386	51.377	83.579	C.2	1	RES1	0.000	
12	  O4	12.660	56.554	94.672	O.2	1	RES1	0.000	
13	  C5	13.263	52.604	84.281	C.2	1	RES1	0.000	
14	  O5	10.714	57.601	96.258	O.3	1	RES1	0.000	
15	  C6	12.463	52.682	85.426	C.2	1	RES1	0.000	
16	  C7	11.788	51.563	85.905	C.2	1	RES1	0.000	
17	  C8	10.971	51.672	87.167	C.3	1	RES1	0.000	
18	  C9	12.217	52.946	88.908	C.2	1	RES1	0.000	
19	 C10	12.331	54.309	89.541	C.3	1	RES1	0.000	
20	 C11	13.505	55.091	88.965	C.3	1	RES1	0.000	
21	 C12	14.700	54.619	89.821	C.3	1	RES1	0.000	
22	 N12	15.228	50.831	80.333	N.2	1	RES1	0.000	
23	 C13	14.107	54.469	91.206	C.3	1	RES1	0.000	
24	 C14	11.863	53.954	92.071	C.2	1	RES1	0.000	
25	 C15	12.485	53.924	93.500	C.3	1	RES1	0.000	
26	 C16	11.679	55.865	94.881	C.2	1	RES1	0.000	
27	 C17	10.497	56.328	95.705	C.3	1	RES1	0.000	
28	 C46	12.827	52.444	93.981	C.3	1	RES1	0.000	
29	 C47	11.540	51.623	94.276	C.3	1	RES1	0.000	
30	 C48	13.633	52.480	95.266	C.3	1	RES1	0.000	
31	 C49	13.629	51.705	92.941	C.3	1	RES1	0.000	
32	 C50	11.931	50.363	85.209	C.2	1	RES1	0.000	
33	 C51	12.721	50.251	84.097	C.2	1	RES1	0.000	
34	 C52	16.191	51.499	80.942	C.2	1	RES1	0.000	
@<TRIPOS>BOND
1 1 4 1
2 2 17 1
3 2 18 1
4 3 18 2
5 4 8 ar
6 7 8 ar
7 7 34 ar
8 8 11 1
9 11 13 ar
10 11 33 ar
11 13 15 ar
12 15 16 ar
13 16 17 1
14 5 19 1
15 18 19 1
16 19 20 1
17 20 21 1
18 6 21 1
19 21 23 1
20 4 22 ar
21 22 34 ar
22 5 23 1
23 5 24 1
24 10 24 2
25 24 25 1
26 9 25 1
27 25 28 1
28 9 26 1
29 12 26 2
30 26 27 1
31 14 27 1
32 28 29 1
33 28 30 1
34 28 31 1
35 16 32 ar
36 32 33 ar
@<TRIPOS>SUBSTRUCTURE
1	RES1	1	GROUP	1 ****	RES
