# created with PyMOL 2.5.2
@<TRIPOS>MOLECULE
BRD4_5NVV_E3ligase
34 36 1                 
SMALL
USER_CHARGES
@<TRIPOS>ATOM
1	  C1	12.886	50.029	80.740	C.3	1	RES1	0.000	
2	  N1	11.334	52.863	87.958	N.pl3	1	RES1	0.000	
3	  O1	12.996	51.940	89.294	O.2	1	RES1	0.000	
4	  C2	14.067	50.781	81.180	C.2	1	RES1	0.000	
5	  N2	12.839	54.177	91.020	N.pl3	1	RES1	0.000	
6	  O2	15.742	55.780	89.727	O.3	1	RES1	0.000	
7	  S2	15.903	52.011	82.444	S.2	1	RES1	0.000	
8	  C3	14.306	51.325	82.431	C.2	1	RES1	0.000	
9	  N3	11.387	54.530	94.287	N.pl3	1	RES1	0.000	
10	  O3	10.729	53.703	91.770	O.2	1	RES1	0.000	
11	  C4	13.495	51.380	83.643	C.2	1	RES1	0.000	
12	  O4	12.585	56.473	94.686	O.2	1	RES1	0.000	
13	  C5	12.784	50.249	84.120	C.2	1	RES1	0.000	
14	  O5	10.562	57.633	96.148	O.3	1	RES1	0.000	
15	  C6	11.998	50.358	85.261	C.2	1	RES1	0.000	
16	  C7	11.879	51.565	85.955	C.2	1	RES1	0.000	
17	  C8	11.039	51.633	87.218	C.3	1	RES1	0.000	
18	  C9	12.322	52.888	88.982	C.2	1	RES1	0.000	
19	 C10	12.447	54.289	89.626	C.3	1	RES1	0.000	
20	 C11	13.541	55.127	88.992	C.3	1	RES1	0.000	
21	 C12	14.752	54.727	89.780	C.3	1	RES1	0.000	
22	 N12	15.094	50.935	80.257	N.2	1	RES1	0.000	
23	 C13	14.246	54.535	91.193	C.3	1	RES1	0.000	
24	 C14	11.899	53.912	92.027	C.2	1	RES1	0.000	
25	 C15	12.417	53.877	93.493	C.3	1	RES1	0.000	
26	 C16	11.581	55.809	94.816	C.2	1	RES1	0.000	
27	 C17	10.354	56.338	95.528	C.3	1	RES1	0.000	
28	 C48	12.731	52.418	93.991	C.3	1	RES1	0.000	
29	 C49	11.406	51.576	93.997	C.3	1	RES1	0.000	
30	 C50	13.217	52.484	95.462	C.3	1	RES1	0.000	
31	 C51	13.757	51.664	93.143	C.3	1	RES1	0.000	
32	 C52	12.577	52.686	85.487	C.2	1	RES1	0.000	
33	 C53	13.368	52.573	84.324	C.2	1	RES1	0.000	
34	 C54	16.110	51.585	80.825	C.2	1	RES1	0.000	
@<TRIPOS>BOND
1 1 4 1
2 2 17 1
3 2 18 1
4 3 18 2
5 4 8 ar
6 7 8 ar
7 7 34 ar
8 8 11 1
9 11 13 ar
10 11 33 ar
11 13 15 ar
12 15 16 ar
13 16 17 1
14 5 19 1
15 18 19 1
16 19 20 1
17 20 21 1
18 6 21 1
19 21 23 1
20 4 22 ar
21 22 34 ar
22 5 23 1
23 5 24 1
24 10 24 2
25 24 25 1
26 9 25 1
27 25 28 1
28 9 26 1
29 12 26 2
30 26 27 1
31 14 27 1
32 28 29 1
33 28 30 1
34 28 31 1
35 16 32 ar
36 32 33 ar
@<TRIPOS>SUBSTRUCTURE
1	RES1	1	GROUP	1 ****	RES
