# created with PyMOL 2.5.2
@<TRIPOS>MOLECULE
BRD4_5NVV_E3ligase
34 36 1                 
SMALL
USER_CHARGES
@<TRIPOS>ATOM
1	  C1	12.836	50.015	80.568	C.3	1	RES1	0.000	
2	  N1	11.530	53.135	87.782	N.pl3	1	RES1	0.000	
3	  O1	12.729	51.856	89.244	O.2	1	RES1	0.000	
4	  C2	14.118	50.573	81.098	C.2	1	RES1	0.000	
5	  N2	12.925	54.105	91.063	N.pl3	1	RES1	0.000	
6	  O2	14.429	56.634	90.554	O.3	1	RES1	0.000	
7	  S2	15.956	51.734	82.381	S.2	1	RES1	0.000	
8	  C3	14.328	51.149	82.325	C.2	1	RES1	0.000	
9	  N3	11.396	54.497	94.283	N.pl3	1	RES1	0.000	
10	  O3	10.820	53.615	91.817	O.2	1	RES1	0.000	
11	  C4	13.460	51.358	83.461	C.2	1	RES1	0.000	
12	  O4	12.493	56.505	94.639	O.2	1	RES1	0.000	
13	  C5	13.502	52.577	84.164	C.2	1	RES1	0.000	
14	  O5	10.452	57.511	96.193	O.3	1	RES1	0.000	
15	  C6	12.712	52.789	85.292	C.2	1	RES1	0.000	
16	  C7	11.858	51.781	85.771	C.2	1	RES1	0.000	
17	  C8	11.015	52.025	86.989	C.3	1	RES1	0.000	
18	  C9	12.353	52.947	88.850	C.2	1	RES1	0.000	
19	 C10	12.706	54.244	89.622	C.3	1	RES1	0.000	
20	 C11	14.076	54.776	89.077	C.3	1	RES1	0.000	
21	 C12	14.788	55.282	90.279	C.3	1	RES1	0.000	
22	 N12	15.203	50.558	80.231	N.2	1	RES1	0.000	
23	 C13	14.302	54.375	91.418	C.3	1	RES1	0.000	
24	 C14	11.979	53.842	92.070	C.2	1	RES1	0.000	
25	 C15	12.477	53.833	93.535	C.3	1	RES1	0.000	
26	 C16	11.498	55.763	94.812	C.2	1	RES1	0.000	
27	 C17	10.281	56.196	95.601	C.3	1	RES1	0.000	
28	 C50	12.787	52.406	94.065	C.3	1	RES1	0.000	
29	 C51	11.558	51.496	94.111	C.3	1	RES1	0.000	
30	 C52	13.350	52.503	95.493	C.3	1	RES1	0.000	
31	 C53	13.877	51.714	93.208	C.3	1	RES1	0.000	
32	 C54	11.783	50.567	85.060	C.2	1	RES1	0.000	
33	 C55	12.564	50.367	83.935	C.2	1	RES1	0.000	
34	 C56	16.212	51.125	80.816	C.2	1	RES1	0.000	
@<TRIPOS>BOND
1 1 4 1
2 2 17 1
3 2 18 1
4 3 18 2
5 4 8 ar
6 7 8 ar
7 7 34 ar
8 8 11 1
9 11 13 ar
10 11 33 ar
11 13 15 ar
12 15 16 ar
13 16 17 1
14 5 19 1
15 18 19 1
16 19 20 1
17 20 21 1
18 6 21 1
19 21 23 1
20 4 22 ar
21 22 34 ar
22 5 23 1
23 5 24 1
24 10 24 2
25 24 25 1
26 9 25 1
27 25 28 1
28 9 26 1
29 12 26 2
30 26 27 1
31 14 27 1
32 28 29 1
33 28 30 1
34 28 31 1
35 16 32 ar
36 32 33 ar
@<TRIPOS>SUBSTRUCTURE
1	RES1	1	GROUP	1 ****	RES
