# created with PyMOL 2.5.2
@<TRIPOS>MOLECULE
CRBN_5NVV_E3ligase
34 36 1                 
SMALL
USER_CHARGES
@<TRIPOS>ATOM
1	  C1	12.649	49.928	80.775	C.3	1	RES1	0.000	
2	  N1	11.558	53.170	87.886	N.pl3	1	RES1	0.000	
3	  O1	12.890	51.966	89.327	O.2	1	RES1	0.000	
4	  S1	15.918	51.671	82.289	S.2	1	RES1	0.000	
5	  C2	13.929	50.499	81.174	C.2	1	RES1	0.000	
6	  N2	13.096	54.173	91.042	N.pl3	1	RES1	0.000	
7	  O2	14.454	56.824	90.576	O.3	1	RES1	0.000	
8	  C3	14.278	51.120	82.382	C.2	1	RES1	0.000	
9	  N3	11.379	54.437	94.215	N.pl3	1	RES1	0.000	
10	  O3	10.930	53.715	91.575	O.2	1	RES1	0.000	
11	  C4	13.470	51.371	83.580	C.2	1	RES1	0.000	
12	  O4	12.537	56.314	94.861	O.2	1	RES1	0.000	
13	  C5	13.514	52.597	84.237	C.2	1	RES1	0.000	
14	  O5	10.401	57.398	96.151	O.3	1	RES1	0.000	
15	  C6	12.745	52.806	85.403	C.2	1	RES1	0.000	
16	  C7	11.897	51.794	85.880	C.2	1	RES1	0.000	
17	  N7	14.957	50.437	80.234	N.2	1	RES1	0.000	
18	  C8	11.083	52.032	87.109	C.3	1	RES1	0.000	
19	  C9	12.445	53.057	88.952	C.2	1	RES1	0.000	
20	 C10	12.816	54.398	89.631	C.3	1	RES1	0.000	
21	 C11	14.096	54.991	89.043	C.3	1	RES1	0.000	
22	 C12	14.882	55.466	90.239	C.3	1	RES1	0.000	
23	 C13	14.487	54.491	91.309	C.3	1	RES1	0.000	
24	 C14	12.088	53.888	91.967	C.2	1	RES1	0.000	
25	 C15	12.460	53.766	93.467	C.3	1	RES1	0.000	
26	 C16	11.516	55.641	94.816	C.2	1	RES1	0.000	
27	 C17	10.238	56.156	95.465	C.3	1	RES1	0.000	
28	 C35	12.729	52.340	93.935	C.3	1	RES1	0.000	
29	 C36	11.409	51.514	93.804	C.3	1	RES1	0.000	
30	 C37	13.162	52.316	95.385	C.3	1	RES1	0.000	
31	 C38	13.817	51.620	93.093	C.3	1	RES1	0.000	
32	 C39	11.862	50.578	85.221	C.2	1	RES1	0.000	
33	 C40	12.616	50.382	84.087	C.2	1	RES1	0.000	
34	 C41	16.043	51.005	80.712	C.2	1	RES1	0.000	
@<TRIPOS>BOND
1 1 5 1
2 2 18 1
3 2 19 1
4 3 19 2
5 4 8 ar
6 4 34 ar
7 5 8 ar
8 5 17 ar
9 8 11 1
10 11 13 ar
11 11 33 ar
12 13 15 ar
13 15 16 ar
14 16 18 1
15 6 20 1
16 19 20 1
17 20 21 1
18 21 22 1
19 7 22 1
20 22 23 1
21 6 23 1
22 6 24 1
23 10 24 2
24 24 25 1
25 9 25 1
26 25 28 1
27 9 26 1
28 12 26 2
29 26 27 1
30 14 27 1
31 28 29 1
32 28 30 1
33 28 31 1
34 16 32 ar
35 32 33 ar
36 17 34 ar
@<TRIPOS>SUBSTRUCTURE
1	RES1	1	GROUP	1 ****	RES
