# created with PyMOL 2.5.2
@<TRIPOS>MOLECULE
CRBN_5NVV_E3ligase
34 36 1                 
SMALL
USER_CHARGES
@<TRIPOS>ATOM
1	  C1	12.684	49.998	80.783	C.3	1	RES1	0.000	
2	  N1	11.456	53.131	87.886	N.pl3	1	RES1	0.000	
3	  O1	12.698	51.887	89.356	O.2	1	RES1	0.000	
4	  S1	15.914	51.735	82.394	S.2	1	RES1	0.000	
5	  C2	13.990	50.572	81.192	C.2	1	RES1	0.000	
6	  N2	13.101	54.121	91.042	N.pl3	1	RES1	0.000	
7	  O2	14.443	56.754	90.283	O.3	1	RES1	0.000	
8	  C3	14.273	51.184	82.424	C.2	1	RES1	0.000	
9	  N3	11.445	54.472	94.214	N.pl3	1	RES1	0.000	
10	  O3	10.970	53.692	91.628	O.2	1	RES1	0.000	
11	  C4	13.442	51.418	83.602	C.2	1	RES1	0.000	
12	  O4	12.657	56.354	94.755	O.2	1	RES1	0.000	
13	  C5	13.472	52.605	84.297	C.2	1	RES1	0.000	
14	  O5	10.582	57.507	96.114	O.3	1	RES1	0.000	
15	  C6	12.645	52.808	85.401	C.2	1	RES1	0.000	
16	  C7	11.790	51.795	85.874	C.2	1	RES1	0.000	
17	  N7	15.016	50.534	80.272	N.2	1	RES1	0.000	
18	  C8	10.944	52.004	87.082	C.3	1	RES1	0.000	
19	  C9	12.339	52.967	88.931	C.2	1	RES1	0.000	
20	 C10	12.770	54.261	89.618	C.3	1	RES1	0.000	
21	 C11	14.049	54.767	88.940	C.3	1	RES1	0.000	
22	 C12	14.863	55.399	90.093	C.3	1	RES1	0.000	
23	 C13	14.506	54.558	91.318	C.3	1	RES1	0.000	
24	 C14	12.109	53.860	91.977	C.2	1	RES1	0.000	
25	 C15	12.520	53.775	93.487	C.3	1	RES1	0.000	
26	 C16	11.628	55.707	94.767	C.2	1	RES1	0.000	
27	 C17	10.365	56.225	95.468	C.3	1	RES1	0.000	
28	 C37	12.753	52.310	94.007	C.3	1	RES1	0.000	
29	 C38	11.428	51.560	94.071	C.3	1	RES1	0.000	
30	 C39	13.348	52.346	95.415	C.3	1	RES1	0.000	
31	 C40	13.711	51.493	93.090	C.3	1	RES1	0.000	
32	 C41	11.774	50.571	85.171	C.2	1	RES1	0.000	
33	 C42	12.572	50.394	84.052	C.2	1	RES1	0.000	
34	 C43	16.094	51.102	80.820	C.2	1	RES1	0.000	
@<TRIPOS>BOND
1 1 5 1
2 2 18 1
3 2 19 1
4 3 19 2
5 4 8 ar
6 4 34 ar
7 5 8 ar
8 5 17 ar
9 8 11 1
10 11 13 ar
11 11 33 ar
12 13 15 ar
13 15 16 ar
14 16 18 1
15 6 20 1
16 19 20 1
17 20 21 1
18 21 22 1
19 7 22 1
20 22 23 1
21 6 23 1
22 6 24 1
23 10 24 2
24 24 25 1
25 9 25 1
26 25 28 1
27 9 26 1
28 12 26 2
29 26 27 1
30 14 27 1
31 28 29 1
32 28 30 1
33 28 31 1
34 16 32 ar
35 32 33 ar
36 17 34 ar
@<TRIPOS>SUBSTRUCTURE
1	RES1	1	GROUP	1 ****	RES
