# created with PyMOL 2.5.2
@<TRIPOS>MOLECULE
CRBN_4W9H_E3ligase
33 35 1                 
SMALL
USER_CHARGES
@<TRIPOS>ATOM
1	  C1	12.339	49.980	80.504	C.3	1	RES1	0.000	
2	  N1	11.001	52.812	87.767	N.pl3	1	RES1	0.000	
3	  O1	12.535	51.881	89.207	O.2	1	RES1	0.000	
4	  S1	15.500	51.720	82.235	S.2	1	RES1	0.000	
5	  C2	13.589	50.606	80.966	C.2	1	RES1	0.000	
6	  N2	12.495	54.156	90.836	N.pl3	1	RES1	0.000	
7	  O2	15.463	55.605	89.513	O.3	1	RES1	0.000	
8	  C3	13.854	51.139	82.221	C.2	1	RES1	0.000	
9	  N3	11.090	54.650	94.101	N.pl3	1	RES1	0.000	
10	  O3	10.346	53.842	91.597	O.2	1	RES1	0.000	
11	  C4	13.048	51.225	83.436	C.2	1	RES1	0.000	
12	  O4	12.457	56.408	94.586	O.2	1	RES1	0.000	
13	  C5	12.331	50.138	83.953	C.2	1	RES1	0.000	
14	  C6	11.555	50.269	85.110	C.2	1	RES1	0.000	
15	  C7	11.484	51.478	85.781	C.2	1	RES1	0.000	
16	  N7	14.601	50.715	80.051	N.2	1	RES1	0.000	
17	  C8	10.686	51.583	87.049	C.3	1	RES1	0.000	
18	  C9	11.930	52.844	88.820	C.2	1	RES1	0.000	
19	 C10	12.083	54.245	89.411	C.3	1	RES1	0.000	
20	 C11	13.240	55.039	88.780	C.3	1	RES1	0.000	
21	 C12	14.458	54.622	89.587	C.3	1	RES1	0.000	
22	 C13	13.880	54.480	91.010	C.3	1	RES1	0.000	
23	 C14	11.552	53.949	91.851	C.2	1	RES1	0.000	
24	 C15	12.075	53.880	93.295	C.3	1	RES1	0.000	
25	 C16	11.390	55.845	94.684	C.2	1	RES1	0.000	
26	 C17	10.229	56.455	95.427	C.3	1	RES1	0.000	
27	 C40	12.265	52.395	93.822	C.3	1	RES1	0.000	
28	 C41	10.929	51.683	94.053	C.3	1	RES1	0.000	
29	 C42	13.031	52.472	95.150	C.3	1	RES1	0.000	
30	 C43	13.120	51.578	92.867	C.3	1	RES1	0.000	
31	 C44	12.189	52.583	85.258	C.2	1	RES1	0.000	
32	 C45	12.965	52.462	84.121	C.2	1	RES1	0.000	
33	 C46	15.660	51.273	80.586	C.2	1	RES1	0.000	
@<TRIPOS>BOND
1 1 5 1
2 2 17 1
3 2 18 1
4 3 18 2
5 4 8 ar
6 4 33 ar
7 5 8 ar
8 5 16 ar
9 8 11 1
10 11 13 ar
11 11 32 ar
12 13 14 ar
13 14 15 ar
14 15 17 1
15 6 19 1
16 18 19 1
17 19 20 1
18 20 21 1
19 7 21 1
20 21 22 1
21 6 22 1
22 6 23 1
23 10 23 2
24 23 24 1
25 9 24 1
26 24 27 1
27 9 25 1
28 12 25 2
29 25 26 1
30 27 28 1
31 27 29 1
32 27 30 1
33 15 31 ar
34 31 32 ar
35 16 33 ar
@<TRIPOS>SUBSTRUCTURE
1	RES1	1	GROUP	1 ****	RES
