# created with PyMOL 2.5.2
@<TRIPOS>MOLECULE
CRBN_4W9H_E3ligase
33 35 1                 
SMALL
USER_CHARGES
@<TRIPOS>ATOM
1	  C1	12.419	50.002	80.482	C.3	1	RES1	0.000	
2	  N1	10.915	52.782	87.702	N.pl3	1	RES1	0.000	
3	  O1	12.423	51.807	89.168	O.2	1	RES1	0.000	
4	  S1	15.494	51.824	82.279	S.2	1	RES1	0.000	
5	  C2	13.679	50.628	80.961	C.2	1	RES1	0.000	
6	  N2	12.366	54.141	90.804	N.pl3	1	RES1	0.000	
7	  O2	15.468	55.362	89.528	O.3	1	RES1	0.000	
8	  C3	13.897	51.167	82.208	C.2	1	RES1	0.000	
9	  N3	11.164	54.703	94.157	N.pl3	1	RES1	0.000	
10	  O3	10.315	53.784	91.723	O.2	1	RES1	0.000	
11	  C4	13.016	51.266	83.382	C.2	1	RES1	0.000	
12	  O4	12.504	56.504	94.600	O.2	1	RES1	0.000	
13	  C5	12.892	52.484	84.068	C.2	1	RES1	0.000	
14	  C6	12.121	52.591	85.219	C.2	1	RES1	0.000	
15	  C7	11.418	51.494	85.710	C.2	1	RES1	0.000	
16	  N7	14.746	50.701	80.098	N.2	1	RES1	0.000	
17	  C8	10.606	51.591	86.984	C.3	1	RES1	0.000	
18	  C9	11.818	52.820	88.770	C.2	1	RES1	0.000	
19	 C10	12.025	54.185	89.398	C.3	1	RES1	0.000	
20	 C11	13.229	54.911	88.756	C.3	1	RES1	0.000	
21	 C12	14.390	54.423	89.582	C.3	1	RES1	0.000	
22	 C13	13.776	54.356	90.979	C.3	1	RES1	0.000	
23	 C14	11.505	53.949	91.901	C.2	1	RES1	0.000	
24	 C15	12.103	53.933	93.304	C.3	1	RES1	0.000	
25	 C16	11.446	55.920	94.708	C.2	1	RES1	0.000	
26	 C17	10.278	56.483	95.481	C.3	1	RES1	0.000	
27	 C45	12.350	52.515	93.862	C.3	1	RES1	0.000	
28	 C46	11.037	51.728	94.174	C.3	1	RES1	0.000	
29	 C47	13.157	52.571	95.174	C.3	1	RES1	0.000	
30	 C48	13.193	51.661	92.868	C.3	1	RES1	0.000	
31	 C49	11.530	50.275	85.036	C.2	1	RES1	0.000	
32	 C50	12.327	50.154	83.874	C.2	1	RES1	0.000	
33	 C51	15.765	51.293	80.689	C.2	1	RES1	0.000	
@<TRIPOS>BOND
1 1 5 1
2 2 17 1
3 2 18 1
4 3 18 2
5 4 8 ar
6 4 33 ar
7 5 8 ar
8 5 16 ar
9 8 11 1
10 11 13 ar
11 11 32 ar
12 13 14 ar
13 14 15 ar
14 15 17 1
15 6 19 1
16 18 19 1
17 19 20 1
18 20 21 1
19 7 21 1
20 21 22 1
21 6 22 1
22 6 23 1
23 10 23 2
24 23 24 1
25 9 24 1
26 24 27 1
27 9 25 1
28 12 25 2
29 25 26 1
30 27 28 1
31 27 29 1
32 27 30 1
33 15 31 ar
34 31 32 ar
35 16 33 ar
@<TRIPOS>SUBSTRUCTURE
1	RES1	1	GROUP	1 ****	RES
