# created with PyMOL 2.5.2
@<TRIPOS>MOLECULE
BRD2_6H0G_E3ligase
20 22 1                 
SMALL
USER_CHARGES
@<TRIPOS>ATOM
1	  O3	2.770	53.755	-82.821	O.2	1	RES1	0.000	
2	  O4	3.708	49.714	-77.397	O.2	1	RES1	0.000	
3	  O5	0.186	50.507	-80.125	O.2	1	RES1	0.000	
4	  O6	0.438	49.783	-82.301	O.2	1	RES1	0.000	
5	  N7	1.950	54.464	-85.574	N.pl3	1	RES1	0.000	
6	  N8	1.694	51.756	-82.108	N.2	1	RES1	0.000	
7	  N9	1.998	50.100	-78.813	N.pl3	1	RES1	0.000	
8	 C18	1.321	53.220	-85.442	C.2	1	RES1	0.000	
9	 C19	0.535	52.678	-86.481	C.2	1	RES1	0.000	
10	 C20	-0.145	51.480	-86.311	C.2	1	RES1	0.000	
11	 C21	-0.096	50.790	-85.088	C.2	1	RES1	0.000	
12	 C22	0.660	51.331	-84.092	C.2	1	RES1	0.000	
13	 C23	1.364	52.496	-84.236	C.2	1	RES1	0.000	
14	 C24	2.054	52.778	-83.003	C.2	1	RES1	0.000	
15	 C25	2.227	51.611	-80.739	C.3	1	RES1	0.000	
16	 C26	3.705	51.185	-80.698	C.3	1	RES1	0.000	
17	 C27	4.171	51.159	-79.267	C.3	1	RES1	0.000	
18	 C28	3.327	50.257	-78.407	C.2	1	RES1	0.000	
19	 C29	1.355	50.693	-79.919	C.2	1	RES1	0.000	
20	 C30	0.902	50.837	-82.744	C.2	1	RES1	0.000	
@<TRIPOS>BOND
1 5 8 1
2 8 9 ar
3 8 13 ar
4 9 10 ar
5 10 11 ar
6 11 12 ar
7 12 13 ar
8 12 20 ar
9 13 14 ar
10 1 14 2
11 6 14 ar
12 6 15 1
13 15 16 1
14 15 19 1
15 16 17 1
16 17 18 1
17 2 18 2
18 7 18 1
19 3 19 2
20 7 19 1
21 4 20 2
22 6 20 ar
@<TRIPOS>SUBSTRUCTURE
1	RES1	1	GROUP	1 ****	RES
