# created with PyMOL 2.5.2
@<TRIPOS>MOLECULE
CRBN_4W9H_E3ligase
33 35 1                 
SMALL
USER_CHARGES
@<TRIPOS>ATOM
1	  C1	12.410	49.989	80.485	C.3	1	RES1	0.000	
2	  N1	10.907	52.729	87.772	N.pl3	1	RES1	0.000	
3	  O1	12.343	51.717	89.253	O.2	1	RES1	0.000	
4	  S1	15.517	51.816	82.270	S.2	1	RES1	0.000	
5	  C2	13.638	50.651	80.975	C.2	1	RES1	0.000	
6	  N2	12.520	54.094	90.825	N.pl3	1	RES1	0.000	
7	  O2	15.475	55.494	89.321	O.3	1	RES1	0.000	
8	  C3	13.879	51.204	82.233	C.2	1	RES1	0.000	
9	  N3	11.110	54.676	94.095	N.pl3	1	RES1	0.000	
10	  O3	10.398	53.775	91.621	O.2	1	RES1	0.000	
11	  C4	13.013	51.314	83.415	C.2	1	RES1	0.000	
12	  O4	12.485	56.455	94.611	O.2	1	RES1	0.000	
13	  C5	12.290	50.212	83.854	C.2	1	RES1	0.000	
14	  C6	11.507	50.316	85.004	C.2	1	RES1	0.000	
15	  C7	11.424	51.507	85.735	C.2	1	RES1	0.000	
16	  N7	14.679	50.750	80.075	N.2	1	RES1	0.000	
17	  C8	10.614	51.544	87.012	C.3	1	RES1	0.000	
18	  C9	11.832	52.742	88.822	C.2	1	RES1	0.000	
19	 C10	12.088	54.115	89.433	C.3	1	RES1	0.000	
20	 C11	13.263	54.808	88.690	C.3	1	RES1	0.000	
21	 C12	14.459	54.496	89.548	C.3	1	RES1	0.000	
22	 C13	13.899	54.505	90.964	C.3	1	RES1	0.000	
23	 C14	11.564	53.919	91.856	C.2	1	RES1	0.000	
24	 C15	12.101	53.892	93.304	C.3	1	RES1	0.000	
25	 C16	11.404	55.893	94.664	C.2	1	RES1	0.000	
26	 C17	10.211	56.531	95.348	C.3	1	RES1	0.000	
27	 C47	12.316	52.463	93.913	C.3	1	RES1	0.000	
28	 C48	10.978	51.793	94.145	C.3	1	RES1	0.000	
29	 C49	13.011	52.600	95.292	C.3	1	RES1	0.000	
30	 C50	13.166	51.573	93.042	C.3	1	RES1	0.000	
31	 C51	12.177	52.603	85.303	C.2	1	RES1	0.000	
32	 C52	12.970	52.504	84.141	C.2	1	RES1	0.000	
33	 C53	15.724	51.327	80.613	C.2	1	RES1	0.000	
@<TRIPOS>BOND
1 1 5 1
2 2 17 1
3 2 18 1
4 3 18 2
5 4 8 ar
6 4 33 ar
7 5 8 ar
8 5 16 ar
9 8 11 1
10 11 13 ar
11 11 32 ar
12 13 14 ar
13 14 15 ar
14 15 17 1
15 6 19 1
16 18 19 1
17 19 20 1
18 20 21 1
19 7 21 1
20 21 22 1
21 6 22 1
22 6 23 1
23 10 23 2
24 23 24 1
25 9 24 1
26 24 27 1
27 9 25 1
28 12 25 2
29 25 26 1
30 27 28 1
31 27 29 1
32 27 30 1
33 15 31 ar
34 31 32 ar
35 16 33 ar
@<TRIPOS>SUBSTRUCTURE
1	RES1	1	GROUP	1 ****	RES
