# created with PyMOL 2.5.2
@<TRIPOS>MOLECULE
CRBN_4W9H_E3ligase
33 35 1                 
SMALL
USER_CHARGES
@<TRIPOS>ATOM
1	  C1	12.396	49.888	80.585	C.3	1	RES1	0.000	
2	  N1	11.070	52.803	87.761	N.pl3	1	RES1	0.000	
3	  O1	12.578	51.866	89.179	O.2	1	RES1	0.000	
4	  S1	15.522	51.848	82.154	S.2	1	RES1	0.000	
5	  C2	13.638	50.596	80.994	C.2	1	RES1	0.000	
6	  N2	12.472	54.114	90.837	N.pl3	1	RES1	0.000	
7	  O2	15.533	55.541	89.623	O.3	1	RES1	0.000	
8	  C3	13.953	51.169	82.215	C.2	1	RES1	0.000	
9	  N3	10.934	54.607	94.040	N.pl3	1	RES1	0.000	
10	  O3	10.305	53.820	91.506	O.2	1	RES1	0.000	
11	  C4	13.157	51.273	83.438	C.2	1	RES1	0.000	
12	  O4	12.249	56.402	94.701	O.2	1	RES1	0.000	
13	  C5	13.013	52.478	84.139	C.2	1	RES1	0.000	
14	  C6	12.252	52.577	85.289	C.2	1	RES1	0.000	
15	  C7	11.560	51.451	85.772	C.2	1	RES1	0.000	
16	  N7	14.613	50.728	80.017	N.2	1	RES1	0.000	
17	  C8	10.751	51.580	87.058	C.3	1	RES1	0.000	
18	  C9	11.972	52.829	88.805	C.2	1	RES1	0.000	
19	 C10	12.134	54.226	89.408	C.3	1	RES1	0.000	
20	 C11	13.307	55.002	88.808	C.3	1	RES1	0.000	
21	 C12	14.476	54.572	89.644	C.3	1	RES1	0.000	
22	 C13	13.883	54.414	91.031	C.3	1	RES1	0.000	
23	 C14	11.506	53.928	91.803	C.2	1	RES1	0.000	
24	 C15	11.941	53.911	93.292	C.3	1	RES1	0.000	
25	 C16	11.155	55.833	94.688	C.2	1	RES1	0.000	
26	 C17	9.937	56.407	95.353	C.3	1	RES1	0.000	
27	 C47	12.222	52.460	93.821	C.3	1	RES1	0.000	
28	 C48	12.549	52.524	95.332	C.3	1	RES1	0.000	
29	 C49	13.476	51.881	93.115	C.3	1	RES1	0.000	
30	 C50	11.064	51.493	93.642	C.3	1	RES1	0.000	
31	 C51	11.657	50.255	85.102	C.2	1	RES1	0.000	
32	 C52	12.432	50.157	83.922	C.2	1	RES1	0.000	
33	 C53	15.659	51.357	80.525	C.2	1	RES1	0.000	
@<TRIPOS>BOND
1 1 5 1
2 2 17 1
3 2 18 1
4 3 18 2
5 4 8 ar
6 4 33 ar
7 5 8 ar
8 5 16 ar
9 8 11 1
10 11 13 ar
11 11 32 ar
12 13 14 ar
13 14 15 ar
14 15 17 1
15 6 19 1
16 18 19 1
17 19 20 1
18 20 21 1
19 7 21 1
20 21 22 1
21 6 22 1
22 6 23 1
23 10 23 2
24 23 24 1
25 9 24 1
26 24 27 1
27 9 25 1
28 12 25 2
29 25 26 1
30 27 28 1
31 27 29 1
32 27 30 1
33 15 31 ar
34 31 32 ar
35 16 33 ar
@<TRIPOS>SUBSTRUCTURE
1	RES1	1	GROUP	1 ****	RES
