# created with PyMOL 2.5.2
@<TRIPOS>MOLECULE
CRBN_4W9H_E3ligase
33 35 1                 
SMALL
USER_CHARGES
@<TRIPOS>ATOM
1	  C1	12.326	49.997	80.516	C.3	1	RES1	0.000	
2	  N1	10.987	52.838	87.745	N.pl3	1	RES1	0.000	
3	  O1	12.441	51.844	89.190	O.2	1	RES1	0.000	
4	  S1	15.507	51.707	82.160	S.2	1	RES1	0.000	
5	  C2	13.590	50.571	80.934	C.2	1	RES1	0.000	
6	  N2	12.523	54.151	90.850	N.pl3	1	RES1	0.000	
7	  O2	15.436	55.664	89.493	O.3	1	RES1	0.000	
8	  C3	13.894	51.102	82.174	C.2	1	RES1	0.000	
9	  N3	11.085	54.600	94.106	N.pl3	1	RES1	0.000	
10	  O3	10.410	53.716	91.630	O.2	1	RES1	0.000	
11	  C4	13.075	51.269	83.411	C.2	1	RES1	0.000	
12	  O4	12.451	56.397	94.651	O.2	1	RES1	0.000	
13	  C5	12.286	50.190	83.842	C.2	1	RES1	0.000	
14	  C6	11.496	50.354	85.007	C.2	1	RES1	0.000	
15	  C7	11.458	51.569	85.695	C.2	1	RES1	0.000	
16	  N7	14.616	50.573	80.034	N.2	1	RES1	0.000	
17	  C8	10.674	51.652	86.986	C.3	1	RES1	0.000	
18	  C9	11.897	52.843	88.772	C.2	1	RES1	0.000	
19	 C10	12.097	54.212	89.444	C.3	1	RES1	0.000	
20	 C11	13.203	55.003	88.785	C.3	1	RES1	0.000	
21	 C12	14.430	54.661	89.614	C.3	1	RES1	0.000	
22	 C13	13.884	54.590	91.021	C.3	1	RES1	0.000	
23	 C14	11.593	53.908	91.883	C.2	1	RES1	0.000	
24	 C15	12.071	53.846	93.347	C.3	1	RES1	0.000	
25	 C16	11.356	55.836	94.713	C.2	1	RES1	0.000	
26	 C17	10.172	56.451	95.385	C.3	1	RES1	0.000	
27	 C51	12.307	52.432	93.914	C.3	1	RES1	0.000	
28	 C52	10.969	51.683	94.061	C.3	1	RES1	0.000	
29	 C53	12.921	52.521	95.339	C.3	1	RES1	0.000	
30	 C54	13.248	51.566	93.037	C.3	1	RES1	0.000	
31	 C55	12.267	52.620	85.235	C.2	1	RES1	0.000	
32	 C56	13.041	52.491	84.114	C.2	1	RES1	0.000	
33	 C57	15.659	51.148	80.535	C.2	1	RES1	0.000	
@<TRIPOS>BOND
1 1 5 1
2 2 17 1
3 2 18 1
4 3 18 2
5 4 8 ar
6 4 33 ar
7 5 8 ar
8 5 16 ar
9 8 11 1
10 11 13 ar
11 11 32 ar
12 13 14 ar
13 14 15 ar
14 15 17 1
15 6 19 1
16 18 19 1
17 19 20 1
18 20 21 1
19 7 21 1
20 21 22 1
21 6 22 1
22 6 23 1
23 10 23 2
24 23 24 1
25 9 24 1
26 24 27 1
27 9 25 1
28 12 25 2
29 25 26 1
30 27 28 1
31 27 29 1
32 27 30 1
33 15 31 ar
34 31 32 ar
35 16 33 ar
@<TRIPOS>SUBSTRUCTURE
1	RES1	1	GROUP	1 ****	RES
