# created with PyMOL 2.5.2
@<TRIPOS>MOLECULE
CRBN_4W9H_E3ligase
33 35 1                 
SMALL
USER_CHARGES
@<TRIPOS>ATOM
1	  C1	12.176	49.852	80.554	C.3	1	RES1	0.000	
2	  N1	11.323	53.075	87.723	N.pl3	1	RES1	0.000	
3	  O1	12.479	51.850	89.232	O.2	1	RES1	0.000	
4	  S1	15.548	51.434	82.005	S.2	1	RES1	0.000	
5	  C2	13.513	50.383	80.896	C.2	1	RES1	0.000	
6	  N2	12.749	54.084	90.905	N.pl3	1	RES1	0.000	
7	  O2	14.093	56.724	90.348	O.3	1	RES1	0.000	
8	  C3	13.879	50.974	82.098	C.2	1	RES1	0.000	
9	  N3	10.936	54.491	93.998	N.pl3	1	RES1	0.000	
10	  O3	10.553	53.717	91.393	O.2	1	RES1	0.000	
11	  C4	13.135	51.226	83.344	C.2	1	RES1	0.000	
12	  O4	12.192	56.293	94.722	O.2	1	RES1	0.000	
13	  C5	13.182	52.466	84.013	C.2	1	RES1	0.000	
14	  C6	12.440	52.694	85.165	C.2	1	RES1	0.000	
15	  C7	11.597	51.714	85.667	C.2	1	RES1	0.000	
16	  N7	14.497	50.293	79.956	N.2	1	RES1	0.000	
17	  C8	10.809	51.951	86.926	C.3	1	RES1	0.000	
18	  C9	12.134	52.942	88.811	C.2	1	RES1	0.000	
19	 C10	12.529	54.291	89.483	C.3	1	RES1	0.000	
20	 C11	13.857	54.816	88.929	C.3	1	RES1	0.000	
21	 C12	14.557	55.380	90.125	C.3	1	RES1	0.000	
22	 C13	14.106	54.508	91.271	C.3	1	RES1	0.000	
23	 C14	11.708	53.861	91.785	C.2	1	RES1	0.000	
24	 C15	12.037	53.799	93.312	C.3	1	RES1	0.000	
25	 C16	11.138	55.705	94.651	C.2	1	RES1	0.000	
26	 C17	9.859	56.244	95.225	C.3	1	RES1	0.000	
27	 C53	12.206	52.301	93.838	C.3	1	RES1	0.000	
28	 C54	12.445	52.250	95.351	C.3	1	RES1	0.000	
29	 C55	13.384	51.663	93.130	C.3	1	RES1	0.000	
30	 C56	10.937	51.495	93.492	C.3	1	RES1	0.000	
31	 C57	11.505	50.491	85.021	C.2	1	RES1	0.000	
32	 C58	12.243	50.231	83.860	C.2	1	RES1	0.000	
33	 C59	15.623	50.818	80.414	C.2	1	RES1	0.000	
@<TRIPOS>BOND
1 1 5 1
2 2 17 1
3 2 18 1
4 3 18 2
5 4 8 ar
6 4 33 ar
7 5 8 ar
8 5 16 ar
9 8 11 1
10 11 13 ar
11 11 32 ar
12 13 14 ar
13 14 15 ar
14 15 17 1
15 6 19 1
16 18 19 1
17 19 20 1
18 20 21 1
19 7 21 1
20 21 22 1
21 6 22 1
22 6 23 1
23 10 23 2
24 23 24 1
25 9 24 1
26 24 27 1
27 9 25 1
28 12 25 2
29 25 26 1
30 27 28 1
31 27 29 1
32 27 30 1
33 15 31 ar
34 31 32 ar
35 16 33 ar
@<TRIPOS>SUBSTRUCTURE
1	RES1	1	GROUP	1 ****	RES
