# created with PyMOL 2.5.2
@<TRIPOS>MOLECULE
BRD4_5NVV_E3ligase
34 36 1                 
SMALL
USER_CHARGES
@<TRIPOS>ATOM
1	  C1	12.837	50.092	80.764	C.3	1	RES1	0.000	
2	  N1	11.295	52.779	87.992	N.pl3	1	RES1	0.000	
3	  O1	12.888	51.885	89.365	O.2	1	RES1	0.000	
4	  C2	14.067	50.843	81.191	C.2	1	RES1	0.000	
5	  N2	12.834	54.193	91.013	N.pl3	1	RES1	0.000	
6	  O2	15.750	55.628	89.570	O.3	1	RES1	0.000	
7	  S2	15.919	52.047	82.437	S.2	1	RES1	0.000	
8	  C3	14.317	51.356	82.447	C.2	1	RES1	0.000	
9	  N3	11.445	54.595	94.298	N.pl3	1	RES1	0.000	
10	  O3	10.710	53.788	91.796	O.2	1	RES1	0.000	
11	  C4	13.514	51.395	83.664	C.2	1	RES1	0.000	
12	  O4	12.698	56.496	94.685	O.2	1	RES1	0.000	
13	  C5	12.783	50.250	84.114	C.2	1	RES1	0.000	
14	  O5	10.690	57.646	96.230	O.3	1	RES1	0.000	
15	  C6	11.983	50.320	85.249	C.2	1	RES1	0.000	
16	  C7	11.850	51.511	85.968	C.2	1	RES1	0.000	
17	  C8	11.034	51.577	87.207	C.3	1	RES1	0.000	
18	  C9	12.229	52.819	88.988	C.2	1	RES1	0.000	
19	  N9	15.061	50.992	80.239	N.2	1	RES1	0.000	
20	 C10	12.391	54.242	89.627	C.3	1	RES1	0.000	
21	 C11	13.501	55.002	88.895	C.3	1	RES1	0.000	
22	 C12	14.732	54.621	89.706	C.3	1	RES1	0.000	
23	 C13	14.230	54.536	91.149	C.3	1	RES1	0.000	
24	 C14	11.895	53.957	92.027	C.2	1	RES1	0.000	
25	 C15	12.435	53.892	93.471	C.3	1	RES1	0.000	
26	 C16	11.657	55.862	94.842	C.2	1	RES1	0.000	
27	 C17	10.454	56.395	95.636	C.3	1	RES1	0.000	
28	 C50	12.722	52.473	93.987	C.3	1	RES1	0.000	
29	 C51	11.401	51.708	94.180	C.3	1	RES1	0.000	
30	 C52	13.439	52.517	95.365	C.3	1	RES1	0.000	
31	 C53	13.600	51.618	93.020	C.3	1	RES1	0.000	
32	 C54	12.589	52.636	85.558	C.2	1	RES1	0.000	
33	 C55	13.351	52.585	84.389	C.2	1	RES1	0.000	
34	 C56	16.057	51.631	80.794	C.2	1	RES1	0.000	
@<TRIPOS>BOND
1 1 4 1
2 2 17 1
3 2 18 1
4 3 18 2
5 4 8 ar
6 4 19 ar
7 7 8 ar
8 7 34 ar
9 8 11 1
10 11 13 ar
11 11 33 ar
12 13 15 ar
13 15 16 ar
14 16 17 1
15 5 20 1
16 18 20 1
17 20 21 1
18 21 22 1
19 6 22 1
20 22 23 1
21 5 23 1
22 5 24 1
23 10 24 2
24 24 25 1
25 9 25 1
26 25 28 1
27 9 26 1
28 12 26 2
29 26 27 1
30 14 27 1
31 28 29 1
32 28 30 1
33 28 31 1
34 16 32 ar
35 32 33 ar
36 19 34 ar
@<TRIPOS>SUBSTRUCTURE
1	RES1	1	GROUP	1 ****	RES
