# created with PyMOL 2.5.2
@<TRIPOS>MOLECULE
BRD4_5NVV_E3ligase
35 37 1                 
SMALL
USER_CHARGES
@<TRIPOS>ATOM
1	  C1	12.851	50.041	80.699	C.3	1	RES1	0.000	
2	  N1	11.318	52.812	87.980	N.pl3	1	RES1	0.000	
3	  O1	12.912	51.915	89.394	O.2	1	RES1	0.000	
4	  C2	14.065	50.768	81.139	C.2	1	RES1	0.000	
5	  N2	12.822	54.193	91.002	N.pl3	1	RES1	0.000	
6	  O2	15.777	55.697	89.624	O.3	1	RES1	0.000	
7	  S2	15.825	52.108	82.432	S.2	1	RES1	0.000	
8	  C3	14.269	51.310	82.413	C.2	1	RES1	0.000	
9	  N3	11.449	54.569	94.322	N.pl3	1	RES1	0.000	
10	  O3	10.700	53.757	91.769	O.2	1	RES1	0.000	
11	  C4	13.443	51.351	83.635	C.2	1	RES1	0.000	
12	  O4	12.716	56.462	94.716	O.2	1	RES1	0.000	
13	  C5	13.336	52.577	84.346	C.2	1	RES1	0.000	
14	  O5	10.730	57.665	96.190	O.3	1	RES1	0.000	
15	  C6	12.575	52.664	85.513	C.2	1	RES1	0.000	
16	  C7	11.895	51.513	85.980	C.2	1	RES1	0.000	
17	  C8	11.039	51.605	87.229	C.3	1	RES1	0.000	
18	  C9	12.266	52.885	89.015	C.2	1	RES1	0.000	
19	  N9	15.091	50.925	80.274	N.2	1	RES1	0.000	
20	 C10	12.395	54.281	89.609	C.3	1	RES1	0.000	
21	 C11	13.502	55.063	88.938	C.3	1	RES1	0.000	
22	 C12	14.755	54.720	89.748	C.3	1	RES1	0.000	
23	 C13	14.200	54.635	91.187	C.3	1	RES1	0.000	
24	 C14	11.901	53.944	92.023	C.2	1	RES1	0.000	
25	 C15	12.443	53.887	93.473	C.3	1	RES1	0.000	
26	 C16	11.677	55.808	94.842	C.2	1	RES1	0.000	
27	 C17	10.472	56.387	95.590	C.3	1	RES1	0.000	
28	 C43	12.698	52.408	93.975	C.3	1	RES1	0.000	
29	 C44	11.333	51.701	94.186	C.3	1	RES1	0.000	
30	 C45	13.460	52.454	95.306	C.3	1	RES1	0.000	
31	 C46	13.540	51.565	92.995	C.3	1	RES1	0.000	
32	 C47	12.040	50.323	85.312	C.2	1	RES1	0.000	
33	 C48	12.797	50.239	84.140	C.2	1	RES1	0.000	
34	 C49	16.060	51.618	80.812	C.2	1	RES1	0.000	
35	  F1	13.244	56.383	89.056	 F	1	RES1	0.000	
@<TRIPOS>BOND
1 1 4 1
2 2 17 1
3 2 18 1
4 3 18 2
5 4 8 ar
6 4 19 ar
7 7 8 ar
8 7 34 ar
9 8 11 1
10 11 13 ar
11 11 33 ar
12 13 15 ar
13 15 16 ar
14 16 17 1
15 5 20 1
16 18 20 1
17 20 21 1
18 21 22 1
19 6 22 1
20 22 23 1
21 5 23 1
22 5 24 1
23 10 24 2
24 24 25 1
25 9 25 1
26 25 28 1
27 9 26 1
28 12 26 2
29 26 27 1
30 14 27 1
31 28 29 1
32 28 30 1
33 28 31 1
34 16 32 ar
35 32 33 ar
36 19 34 ar
37 21 35 1
@<TRIPOS>SUBSTRUCTURE
1	RES1	1	GROUP	1 ****	RES
