# created with PyMOL 2.5.2
@<TRIPOS>MOLECULE
BRD4_5NVV_E3ligase
35 37 1                 
SMALL
USER_CHARGES
@<TRIPOS>ATOM
1	  C1	12.726	49.899	80.764	C.3	1	RES1	0.000	
2	  N1	11.459	53.180	87.910	N.pl3	1	RES1	0.000	
3	  O1	12.723	51.843	89.290	O.2	1	RES1	0.000	
4	  C2	13.990	50.545	81.200	C.2	1	RES1	0.000	
5	  N2	13.118	54.133	91.052	N.pl3	1	RES1	0.000	
6	  O2	14.409	56.779	90.214	O.3	1	RES1	0.000	
7	  S2	15.887	51.683	82.427	S.2	1	RES1	0.000	
8	  C3	14.257	51.170	82.416	C.2	1	RES1	0.000	
9	  N3	11.457	54.433	94.220	N.pl3	1	RES1	0.000	
10	  O3	10.960	53.640	91.624	O.2	1	RES1	0.000	
11	  C4	13.387	51.419	83.569	C.2	1	RES1	0.000	
12	  O4	12.649	56.331	94.742	O.2	1	RES1	0.000	
13	  C5	12.514	50.448	84.039	C.2	1	RES1	0.000	
14	  O5	10.550	57.471	96.097	O.3	1	RES1	0.000	
15	  C6	11.721	50.665	85.168	C.2	1	RES1	0.000	
16	  C7	11.786	51.875	85.868	C.2	1	RES1	0.000	
17	  C8	10.945	52.085	87.098	C.3	1	RES1	0.000	
18	  C9	12.324	52.956	88.980	C.2	1	RES1	0.000	
19	  N9	15.054	50.525	80.319	N.2	1	RES1	0.000	
20	 C10	12.840	54.269	89.628	C.3	1	RES1	0.000	
21	 C11	14.081	54.718	88.959	C.3	1	RES1	0.000	
22	 C12	14.845	55.386	90.084	C.3	1	RES1	0.000	
23	 C13	14.458	54.613	91.329	C.3	1	RES1	0.000	
24	 C14	12.118	53.842	91.986	C.2	1	RES1	0.000	
25	 C15	12.525	53.771	93.485	C.3	1	RES1	0.000	
26	 C16	11.616	55.705	94.795	C.2	1	RES1	0.000	
27	 C17	10.343	56.208	95.466	C.3	1	RES1	0.000	
28	 C43	12.775	52.313	93.979	C.3	1	RES1	0.000	
29	 C44	11.439	51.567	94.050	C.3	1	RES1	0.000	
30	 C45	13.397	52.329	95.395	C.3	1	RES1	0.000	
31	 C46	13.732	51.527	93.064	C.3	1	RES1	0.000	
32	 C47	12.704	52.844	85.431	C.2	1	RES1	0.000	
33	 C48	13.473	52.612	84.315	C.2	1	RES1	0.000	
34	 C49	16.092	51.084	80.868	C.2	1	RES1	0.000	
35	  F1	14.842	53.629	88.574	 F	1	RES1	0.000	
@<TRIPOS>BOND
1 1 4 1
2 2 17 1
3 2 18 1
4 3 18 2
5 4 8 ar
6 4 19 ar
7 7 8 ar
8 7 34 ar
9 8 11 1
10 11 13 ar
11 11 33 ar
12 13 15 ar
13 15 16 ar
14 16 17 1
15 5 20 1
16 18 20 1
17 20 21 1
18 21 22 1
19 6 22 1
20 22 23 1
21 5 23 1
22 5 24 1
23 10 24 2
24 24 25 1
25 9 25 1
26 25 28 1
27 9 26 1
28 12 26 2
29 26 27 1
30 14 27 1
31 28 29 1
32 28 30 1
33 28 31 1
34 16 32 ar
35 32 33 ar
36 19 34 ar
37 21 35 1
@<TRIPOS>SUBSTRUCTURE
1	RES1	1	GROUP	1 ****	RES
