# created with PyMOL 2.5.2
@<TRIPOS>MOLECULE
ALK_4W9H_E3ligase
33 35 1                 
SMALL
USER_CHARGES
@<TRIPOS>ATOM
1	  S2	15.543	51.434	82.111	S.2	1	RES1	0.000	
2	  O5	12.307	56.285	94.697	O.2	1	RES1	0.000	
3	  N6	10.985	54.517	93.963	N.pl3	1	RES1	0.000	
4	  O6	10.558	53.673	91.400	O.2	1	RES1	0.000	
5	  N7	12.764	54.061	90.864	N.pl3	1	RES1	0.000	
6	  O7	14.191	56.648	90.255	O.3	1	RES1	0.000	
7	  N8	11.219	53.070	87.726	N.pl3	1	RES1	0.000	
8	  O8	12.402	51.843	89.251	O.2	1	RES1	0.000	
9	  N9	14.532	50.398	80.004	N.2	1	RES1	0.000	
10	 C30	9.980	56.298	95.227	C.3	1	RES1	0.000	
11	 C31	11.219	55.722	94.619	C.2	1	RES1	0.000	
12	 C32	12.043	53.785	93.266	C.3	1	RES1	0.000	
13	 C33	11.715	53.863	91.760	C.2	1	RES1	0.000	
14	 C34	14.144	54.435	91.190	C.3	1	RES1	0.000	
15	 C35	14.574	55.295	90.031	C.3	1	RES1	0.000	
16	 C36	13.822	54.735	88.838	C.3	1	RES1	0.000	
17	 C37	12.492	54.261	89.418	C.3	1	RES1	0.000	
18	 C38	12.060	52.928	88.798	C.2	1	RES1	0.000	
19	 C39	10.715	51.939	86.970	C.3	1	RES1	0.000	
20	 C40	11.509	51.692	85.699	C.2	1	RES1	0.000	
21	 C41	12.339	52.692	85.186	C.2	1	RES1	0.000	
22	 C42	13.093	52.474	84.029	C.2	1	RES1	0.000	
23	 C43	13.063	51.240	83.371	C.2	1	RES1	0.000	
24	 C44	13.851	51.029	82.179	C.2	1	RES1	0.000	
25	 C45	13.510	50.424	80.945	C.2	1	RES1	0.000	
26	 C46	12.200	49.881	80.542	C.3	1	RES1	0.000	
27	 C47	15.631	50.882	80.513	C.2	1	RES1	0.000	
28	 C48	12.231	50.219	83.919	C.2	1	RES1	0.000	
29	 C49	11.486	50.460	85.057	C.2	1	RES1	0.000	
30	 C50	12.228	52.336	93.806	C.3	1	RES1	0.000	
31	 C51	12.692	52.372	95.285	C.3	1	RES1	0.000	
32	 C52	13.325	51.604	92.989	C.3	1	RES1	0.000	
33	 C53	10.943	51.516	93.721	C.3	1	RES1	0.000	
@<TRIPOS>BOND
1 1 24 ar
2 1 27 ar
3 10 11 1
4 2 11 2
5 3 11 1
6 3 12 1
7 12 13 1
8 12 30 1
9 4 13 2
10 5 13 1
11 5 14 1
12 14 15 1
13 6 15 1
14 15 16 1
15 16 17 1
16 5 17 1
17 17 18 1
18 7 18 1
19 8 18 2
20 7 19 1
21 19 20 1
22 20 21 ar
23 20 29 ar
24 21 22 ar
25 22 23 ar
26 23 24 1
27 23 28 ar
28 24 25 ar
29 9 25 ar
30 25 26 1
31 9 27 ar
32 28 29 ar
33 30 31 1
34 30 32 1
35 30 33 1
@<TRIPOS>SUBSTRUCTURE
1	RES1	1	GROUP	1 ****	RES
