# created with PyMOL 2.5.2
@<TRIPOS>MOLECULE
ALK_4W9H_E3ligase
33 35 1                 
SMALL
USER_CHARGES
@<TRIPOS>ATOM
1	  S2	15.539	51.505	82.108	S.2	1	RES1	0.000	
2	  O5	12.387	56.286	94.685	O.2	1	RES1	0.000	
3	  N6	11.037	54.562	93.974	N.pl3	1	RES1	0.000	
4	  O6	10.526	53.726	91.386	O.2	1	RES1	0.000	
5	  N7	12.754	54.019	90.862	N.pl3	1	RES1	0.000	
6	  O7	14.093	56.635	90.202	O.3	1	RES1	0.000	
7	  N8	11.198	52.994	87.740	N.pl3	1	RES1	0.000	
8	  O8	12.417	51.773	89.240	O.2	1	RES1	0.000	
9	  N9	14.539	50.405	80.015	N.2	1	RES1	0.000	
10	 C32	10.051	56.410	95.205	C.3	1	RES1	0.000	
11	 C33	11.294	55.770	94.612	C.2	1	RES1	0.000	
12	 C34	12.043	53.814	93.268	C.3	1	RES1	0.000	
13	 C35	11.686	53.868	91.781	C.2	1	RES1	0.000	
14	 C36	14.090	54.400	91.173	C.3	1	RES1	0.000	
15	 C37	14.540	55.291	90.009	C.3	1	RES1	0.000	
16	 C38	13.804	54.698	88.823	C.3	1	RES1	0.000	
17	 C39	12.466	54.195	89.427	C.3	1	RES1	0.000	
18	 C40	12.051	52.854	88.808	C.2	1	RES1	0.000	
19	 C41	10.696	51.859	86.970	C.3	1	RES1	0.000	
20	 C42	11.508	51.649	85.711	C.2	1	RES1	0.000	
21	 C43	11.476	50.451	85.020	C.2	1	RES1	0.000	
22	 C44	12.246	50.242	83.876	C.2	1	RES1	0.000	
23	 C45	13.095	51.245	83.395	C.2	1	RES1	0.000	
24	 C46	13.866	51.020	82.174	C.2	1	RES1	0.000	
25	 C47	13.532	50.475	80.939	C.2	1	RES1	0.000	
26	 C48	12.213	49.961	80.526	C.3	1	RES1	0.000	
27	 C49	15.655	50.936	80.521	C.2	1	RES1	0.000	
28	 C50	13.112	52.472	84.088	C.2	1	RES1	0.000	
29	 C51	12.352	52.671	85.213	C.2	1	RES1	0.000	
30	 C52	12.225	52.337	93.831	C.3	1	RES1	0.000	
31	 C53	12.714	52.368	95.256	C.3	1	RES1	0.000	
32	 C54	13.258	51.584	93.019	C.3	1	RES1	0.000	
33	 C55	10.907	51.538	93.783	C.3	1	RES1	0.000	
@<TRIPOS>BOND
1 1 24 ar
2 1 27 ar
3 10 11 1
4 2 11 2
5 3 11 1
6 3 12 1
7 12 13 1
8 12 30 1
9 4 13 2
10 5 13 1
11 5 14 1
12 14 15 1
13 6 15 1
14 15 16 1
15 16 17 1
16 5 17 1
17 17 18 1
18 7 18 1
19 8 18 2
20 7 19 1
21 19 20 1
22 20 21 ar
23 20 29 ar
24 21 22 ar
25 22 23 ar
26 23 24 1
27 23 28 ar
28 24 25 ar
29 9 25 ar
30 25 26 1
31 9 27 ar
32 28 29 ar
33 30 31 1
34 30 32 1
35 30 33 1
@<TRIPOS>SUBSTRUCTURE
1	RES1	1	GROUP	1 ****	RES
