# created with PyMOL 2.5.2
@<TRIPOS>MOLECULE
ALK_4W9H_E3ligase
33 35 1                 
SMALL
USER_CHARGES
@<TRIPOS>ATOM
1	  S2	15.519	51.511	82.080	S.2	1	RES1	0.000	
2	  O4	12.268	56.291	94.699	O.2	1	RES1	0.000	
3	  O5	10.547	53.748	91.411	O.2	1	RES1	0.000	
4	  N6	11.002	54.526	93.998	N.pl3	1	RES1	0.000	
5	  O6	14.234	56.608	90.309	O.3	1	RES1	0.000	
6	  N7	12.738	54.082	90.867	N.pl3	1	RES1	0.000	
7	  O7	12.401	51.821	89.259	O.2	1	RES1	0.000	
8	  N8	11.210	53.034	87.736	N.pl3	1	RES1	0.000	
9	  N9	14.531	50.342	80.002	N.2	1	RES1	0.000	
10	 C30	9.956	56.292	95.239	C.3	1	RES1	0.000	
11	 C31	11.192	55.744	94.637	C.2	1	RES1	0.000	
12	 C32	12.052	53.823	93.282	C.3	1	RES1	0.000	
13	 C33	11.695	53.861	91.790	C.2	1	RES1	0.000	
14	 C34	14.138	54.349	91.133	C.3	1	RES1	0.000	
15	 C35	14.568	55.229	90.010	C.3	1	RES1	0.000	
16	 C36	13.774	54.771	88.821	C.3	1	RES1	0.000	
17	 C37	12.451	54.240	89.432	C.3	1	RES1	0.000	
18	 C38	12.052	52.886	88.798	C.2	1	RES1	0.000	
19	 C39	10.723	51.916	86.962	C.3	1	RES1	0.000	
20	 C40	11.530	51.696	85.680	C.2	1	RES1	0.000	
21	 C41	12.348	52.701	85.191	C.2	1	RES1	0.000	
22	 C42	13.132	52.487	84.054	C.2	1	RES1	0.000	
23	 C43	13.081	51.242	83.384	C.2	1	RES1	0.000	
24	 C44	13.872	51.010	82.151	C.2	1	RES1	0.000	
25	 C45	13.515	50.432	80.943	C.2	1	RES1	0.000	
26	 C46	12.199	49.876	80.553	C.3	1	RES1	0.000	
27	 C47	15.637	50.875	80.499	C.2	1	RES1	0.000	
28	 C48	12.234	50.250	83.858	C.2	1	RES1	0.000	
29	 C49	11.475	50.462	85.034	C.2	1	RES1	0.000	
30	 C50	12.277	52.368	93.804	C.3	1	RES1	0.000	
31	 C51	12.743	52.378	95.297	C.3	1	RES1	0.000	
32	 C52	13.334	51.573	93.009	C.3	1	RES1	0.000	
33	 C53	10.943	51.579	93.699	C.3	1	RES1	0.000	
@<TRIPOS>BOND
1 1 24 ar
2 1 27 ar
3 10 11 1
4 2 11 2
5 4 11 1
6 4 12 1
7 12 13 1
8 12 30 1
9 3 13 2
10 6 13 1
11 6 14 1
12 14 15 1
13 5 15 1
14 15 16 1
15 16 17 1
16 6 17 1
17 17 18 1
18 7 18 2
19 8 18 1
20 8 19 1
21 19 20 1
22 20 21 ar
23 20 29 ar
24 21 22 ar
25 22 23 ar
26 23 24 1
27 23 28 ar
28 24 25 ar
29 9 25 ar
30 25 26 1
31 9 27 ar
32 28 29 ar
33 30 31 1
34 30 32 1
35 30 33 1
@<TRIPOS>SUBSTRUCTURE
1	RES1	1	GROUP	1 ****	RES
