# created with PyMOL 2.5.2
@<TRIPOS>MOLECULE
GCN5_7BQU_E3ligase
19 21 1                 
SMALL
USER_CHARGES
@<TRIPOS>ATOM
1	  O4	27.372	17.245	11.952	O.2	1	RES1	0.000	
2	  O5	26.384	20.303	17.902	O.2	1	RES1	0.000	
3	  O6	23.748	19.634	14.261	O.2	1	RES1	0.000	
4	  N7	25.414	17.711	13.158	N.2	1	RES1	0.000	
5	  O7	23.085	17.664	13.640	O.2	1	RES1	0.000	
6	  N8	25.090	19.892	16.072	N.pl3	1	RES1	0.000	
7	 C28	25.576	15.506	10.237	C.2	1	RES1	0.000	
8	 C29	24.457	14.838	9.656	C.2	1	RES1	0.000	
9	 C30	23.199	14.959	10.156	C.2	1	RES1	0.000	
10	 C31	22.938	15.788	11.286	C.2	1	RES1	0.000	
11	 C32	24.010	16.419	11.867	C.2	1	RES1	0.000	
12	 C33	25.282	16.313	11.371	C.2	1	RES1	0.000	
13	 C34	26.182	17.103	12.166	C.2	1	RES1	0.000	
14	 C35	25.933	18.635	14.139	C.3	1	RES1	0.000	
15	 C36	26.838	17.949	15.182	C.3	1	RES1	0.000	
16	 C37	27.353	19.008	16.150	C.3	1	RES1	0.000	
17	 C38	26.230	19.766	16.811	C.2	1	RES1	0.000	
18	 C39	24.828	19.391	14.825	C.2	1	RES1	0.000	
19	 C40	24.072	17.327	13.008	C.2	1	RES1	0.000	
@<TRIPOS>BOND
1 7 8 ar
2 7 12 ar
3 8 9 ar
4 9 10 ar
5 10 11 ar
6 11 12 ar
7 11 19 ar
8 12 13 ar
9 1 13 2
10 4 13 ar
11 4 14 1
12 14 15 1
13 14 18 1
14 15 16 1
15 16 17 1
16 2 17 2
17 6 17 1
18 3 18 2
19 6 18 1
20 4 19 ar
21 5 19 2
@<TRIPOS>SUBSTRUCTURE
1	RES1	1	GROUP	1 ****	RES
