# created with PyMOL 2.5.2
@<TRIPOS>MOLECULE
ALK_5NVV_E3ligase
34 36 1                 
SMALL
USER_CHARGES
@<TRIPOS>ATOM
1	  S2	15.895	51.625	82.328	S.2	1	RES1	0.000	
2	  O4	10.330	57.346	96.165	O.3	1	RES1	0.000	
3	  O5	12.519	56.300	94.863	O.2	1	RES1	0.000	
4	  N6	11.358	54.414	94.180	N.pl3	1	RES1	0.000	
5	  O6	11.016	53.665	91.589	O.2	1	RES1	0.000	
6	  N7	13.178	54.164	91.081	N.pl3	1	RES1	0.000	
7	  O7	14.421	56.844	90.375	O.3	1	RES1	0.000	
8	  N8	11.603	53.200	87.863	N.pl3	1	RES1	0.000	
9	  O8	12.762	51.968	89.378	O.2	1	RES1	0.000	
10	  N9	15.013	50.399	80.253	N.2	1	RES1	0.000	
11	 C29	10.157	56.118	95.427	C.3	1	RES1	0.000	
12	 C30	11.466	55.651	94.792	C.2	1	RES1	0.000	
13	 C31	12.481	53.761	93.468	C.3	1	RES1	0.000	
14	 C32	12.158	53.854	91.990	C.2	1	RES1	0.000	
15	 C33	14.487	54.680	91.415	C.3	1	RES1	0.000	
16	 C34	14.910	55.524	90.207	C.3	1	RES1	0.000	
17	 C35	14.196	54.843	89.057	C.3	1	RES1	0.000	
18	 C36	12.890	54.347	89.635	C.3	1	RES1	0.000	
19	 C37	12.473	53.045	88.920	C.2	1	RES1	0.000	
20	 C38	11.076	52.116	87.105	C.3	1	RES1	0.000	
21	 C39	11.872	51.892	85.841	C.2	1	RES1	0.000	
22	 C40	11.771	50.647	85.180	C.2	1	RES1	0.000	
23	 C41	12.528	50.419	84.023	C.2	1	RES1	0.000	
24	 C42	13.385	51.398	83.520	C.2	1	RES1	0.000	
25	 C43	14.250	51.121	82.333	C.2	1	RES1	0.000	
26	 C44	13.968	50.467	81.132	C.2	1	RES1	0.000	
27	 C45	12.664	49.900	80.684	C.3	1	RES1	0.000	
28	 C46	16.087	50.949	80.800	C.2	1	RES1	0.000	
29	 C47	13.502	52.619	84.207	C.2	1	RES1	0.000	
30	 C48	12.729	52.862	85.327	C.2	1	RES1	0.000	
31	 C49	12.720	52.267	93.983	C.3	1	RES1	0.000	
32	 C50	13.229	52.327	95.432	C.3	1	RES1	0.000	
33	 C51	13.781	51.607	93.132	C.3	1	RES1	0.000	
34	 C52	11.446	51.446	93.976	C.3	1	RES1	0.000	
@<TRIPOS>BOND
1 1 25 ar
2 1 28 ar
3 2 11 1
4 11 12 1
5 3 12 2
6 4 12 1
7 4 13 1
8 13 14 1
9 13 31 1
10 5 14 2
11 6 14 1
12 6 15 1
13 15 16 1
14 7 16 1
15 16 17 1
16 17 18 1
17 6 18 1
18 18 19 1
19 8 19 1
20 9 19 2
21 8 20 1
22 20 21 1
23 21 22 ar
24 21 30 ar
25 22 23 ar
26 23 24 ar
27 24 25 1
28 24 29 ar
29 25 26 ar
30 10 26 ar
31 26 27 1
32 10 28 ar
33 29 30 ar
34 31 32 1
35 31 33 1
36 31 34 1
@<TRIPOS>SUBSTRUCTURE
1	RES1	1	GROUP	1 ****	RES
