# created with PyMOL 2.5.2
@<TRIPOS>MOLECULE
ALK_5NVV_E3ligase
34 36 1                 
SMALL
USER_CHARGES
@<TRIPOS>ATOM
1	  S2	15.907	51.669	82.438	S.2	1	RES1	0.000	
2	  O4	10.498	57.514	95.984	O.3	1	RES1	0.000	
3	  O5	12.674	56.303	94.829	O.2	1	RES1	0.000	
4	  N6	11.456	54.448	94.216	N.pl3	1	RES1	0.000	
5	  O6	10.971	53.680	91.620	O.2	1	RES1	0.000	
6	  N7	13.143	54.127	91.044	N.pl3	1	RES1	0.000	
7	  O7	14.379	56.785	90.206	O.3	1	RES1	0.000	
8	  N8	11.497	53.176	87.879	N.pl3	1	RES1	0.000	
9	  O8	12.752	51.860	89.308	O.2	1	RES1	0.000	
10	  N9	15.013	50.538	80.326	N.2	1	RES1	0.000	
11	 C30	10.367	56.185	95.481	C.3	1	RES1	0.000	
12	 C31	11.613	55.687	94.805	C.2	1	RES1	0.000	
13	 C32	12.508	53.759	93.478	C.3	1	RES1	0.000	
14	 C33	12.111	53.854	91.984	C.2	1	RES1	0.000	
15	 C34	14.482	54.620	91.329	C.3	1	RES1	0.000	
16	 C35	14.873	55.437	90.068	C.3	1	RES1	0.000	
17	 C36	14.123	54.717	88.965	C.3	1	RES1	0.000	
18	 C37	12.817	54.271	89.634	C.3	1	RES1	0.000	
19	 C38	12.373	52.977	88.912	C.2	1	RES1	0.000	
20	 C39	10.938	52.080	87.101	C.3	1	RES1	0.000	
21	 C40	11.783	51.845	85.854	C.2	1	RES1	0.000	
22	 C41	12.637	52.832	85.396	C.2	1	RES1	0.000	
23	 C42	13.456	52.624	84.299	C.2	1	RES1	0.000	
24	 C43	13.419	51.397	83.613	C.2	1	RES1	0.000	
25	 C44	14.257	51.168	82.443	C.2	1	RES1	0.000	
26	 C45	13.982	50.567	81.250	C.2	1	RES1	0.000	
27	 C46	12.722	49.954	80.795	C.3	1	RES1	0.000	
28	 C47	16.075	51.095	80.831	C.2	1	RES1	0.000	
29	 C48	12.520	50.415	84.047	C.2	1	RES1	0.000	
30	 C49	11.695	50.627	85.179	C.2	1	RES1	0.000	
31	 C50	12.769	52.299	93.984	C.3	1	RES1	0.000	
32	 C51	13.628	51.475	93.009	C.3	1	RES1	0.000	
33	 C52	13.483	52.322	95.347	C.3	1	RES1	0.000	
34	 C53	11.432	51.560	94.172	C.3	1	RES1	0.000	
@<TRIPOS>BOND
1 1 25 ar
2 1 28 ar
3 2 11 1
4 11 12 1
5 3 12 2
6 4 12 1
7 4 13 1
8 13 14 1
9 13 31 1
10 5 14 2
11 6 14 1
12 6 15 1
13 15 16 1
14 7 16 1
15 16 17 1
16 17 18 1
17 6 18 1
18 18 19 1
19 8 19 1
20 9 19 2
21 8 20 1
22 20 21 1
23 21 22 ar
24 21 30 ar
25 22 23 ar
26 23 24 ar
27 24 25 1
28 24 29 ar
29 25 26 ar
30 10 26 ar
31 26 27 1
32 10 28 ar
33 29 30 ar
34 31 32 1
35 31 33 1
36 31 34 1
@<TRIPOS>SUBSTRUCTURE
1	RES1	1	GROUP	1 ****	RES
