# created with PyMOL 2.5.2
@<TRIPOS>MOLECULE
ALK_5NVV_E3ligase
34 36 1                 
SMALL
USER_CHARGES
@<TRIPOS>ATOM
1	  S2	16.024	51.530	82.175	S.2	1	RES1	0.000	
2	  N6	11.363	54.422	94.311	N.pl3	1	RES1	0.000	
3	  O6	10.207	57.395	96.153	O.3	1	RES1	0.000	
4	  N7	12.940	54.141	91.106	N.pl3	1	RES1	0.000	
5	  O7	12.408	56.427	94.792	O.2	1	RES1	0.000	
6	  N8	11.656	53.291	87.762	N.pl3	1	RES1	0.000	
7	  O8	10.849	53.643	91.773	O.2	1	RES1	0.000	
8	  N9	15.052	50.322	80.109	N.2	1	RES1	0.000	
9	  O9	14.264	56.765	90.640	O.3	1	RES1	0.000	
10	 O10	12.829	51.947	89.184	O.2	1	RES1	0.000	
11	 C33	10.177	56.070	95.637	C.3	1	RES1	0.000	
12	 C34	11.432	55.683	94.877	C.2	1	RES1	0.000	
13	 C35	12.429	53.809	93.565	C.3	1	RES1	0.000	
14	 C36	11.993	53.837	92.084	C.2	1	RES1	0.000	
15	 C37	14.304	54.508	91.474	C.3	1	RES1	0.000	
16	 C38	14.749	55.456	90.381	C.3	1	RES1	0.000	
17	 C39	14.082	54.896	89.164	C.3	1	RES1	0.000	
18	 C40	12.764	54.309	89.664	C.3	1	RES1	0.000	
19	 C41	12.457	53.052	88.847	C.2	1	RES1	0.000	
20	 C42	11.120	52.196	86.933	C.3	1	RES1	0.000	
21	 C43	11.962	51.899	85.751	C.2	1	RES1	0.000	
22	 C44	12.885	52.839	85.255	C.2	1	RES1	0.000	
23	 C45	13.662	52.576	84.135	C.2	1	RES1	0.000	
24	 C46	13.555	51.358	83.445	C.2	1	RES1	0.000	
25	 C47	14.348	51.064	82.245	C.2	1	RES1	0.000	
26	 C48	14.017	50.454	81.051	C.2	1	RES1	0.000	
27	 C49	12.674	49.915	80.654	C.3	1	RES1	0.000	
28	 C50	16.130	50.854	80.618	C.2	1	RES1	0.000	
29	 C51	12.607	50.428	83.925	C.2	1	RES1	0.000	
30	 C52	11.861	50.684	85.023	C.2	1	RES1	0.000	
31	 C53	12.802	52.375	94.063	C.3	1	RES1	0.000	
32	 C54	13.330	52.438	95.503	C.3	1	RES1	0.000	
33	 C55	13.888	51.715	93.201	C.3	1	RES1	0.000	
34	 C56	11.577	51.422	94.044	C.3	1	RES1	0.000	
@<TRIPOS>BOND
1 1 25 ar
2 1 28 ar
3 10 19 2
4 3 11 1
5 11 12 1
6 2 12 1
7 5 12 2
8 2 13 1
9 13 14 1
10 13 31 1
11 4 14 1
12 7 14 2
13 4 15 1
14 15 16 1
15 9 16 1
16 16 17 1
17 17 18 1
18 4 18 1
19 18 19 1
20 6 19 1
21 6 20 1
22 20 21 1
23 21 22 ar
24 21 30 ar
25 22 23 ar
26 23 24 ar
27 24 25 1
28 24 29 ar
29 25 26 ar
30 8 26 ar
31 26 27 1
32 8 28 ar
33 29 30 ar
34 31 32 1
35 31 33 1
36 31 34 1
@<TRIPOS>SUBSTRUCTURE
1	RES1	1	GROUP	1 ****	RES
