# created with PyMOL 2.5.2
@<TRIPOS>MOLECULE
EGFR_4W9H_E3ligase
33 35 1                 
SMALL
USER_CHARGES
@<TRIPOS>ATOM
1	  C1	12.125	49.850	80.573	C.3	1	RES1	0.000	
2	  N1	11.226	53.119	87.696	N.pl3	1	RES1	0.000	
3	  O1	12.415	51.856	89.160	O.2	1	RES1	0.000	
4	  S1	15.499	51.383	82.095	S.2	1	RES1	0.000	
5	  C2	13.474	50.422	80.933	C.2	1	RES1	0.000	
6	  N2	12.761	54.120	90.895	N.pl3	1	RES1	0.000	
7	  O2	14.152	56.732	90.188	O.3	1	RES1	0.000	
8	  C3	13.829	50.950	82.160	C.2	1	RES1	0.000	
9	  N3	11.070	54.530	94.031	N.pl3	1	RES1	0.000	
10	  O3	10.593	53.650	91.430	O.2	1	RES1	0.000	
11	  C4	13.063	51.196	83.381	C.2	1	RES1	0.000	
12	  O4	12.400	56.273	94.731	O.2	1	RES1	0.000	
13	  C5	13.190	52.407	84.076	C.2	1	RES1	0.000	
14	  C6	12.431	52.666	85.204	C.2	1	RES1	0.000	
15	  C7	11.543	51.717	85.712	C.2	1	RES1	0.000	
16	  C8	10.716	52.006	86.926	C.3	1	RES1	0.000	
17	  C9	12.028	52.965	88.820	C.2	1	RES1	0.000	
18	  N9	14.460	50.342	79.980	N.2	1	RES1	0.000	
19	 C10	12.451	54.279	89.474	C.3	1	RES1	0.000	
20	 C11	13.760	54.774	88.820	C.3	1	RES1	0.000	
21	 C12	14.542	55.354	89.975	C.3	1	RES1	0.000	
22	 C13	14.115	54.490	91.179	C.3	1	RES1	0.000	
23	 C14	11.751	53.847	91.805	C.2	1	RES1	0.000	
24	 C15	12.114	53.765	93.316	C.3	1	RES1	0.000	
25	 C16	11.295	55.727	94.663	C.2	1	RES1	0.000	
26	 C17	10.072	56.310	95.256	C.3	1	RES1	0.000	
27	 C50	12.300	52.308	93.815	C.3	1	RES1	0.000	
28	 C51	10.917	51.574	93.721	C.3	1	RES1	0.000	
29	 C52	12.707	52.268	95.280	C.3	1	RES1	0.000	
30	 C53	13.289	51.492	92.983	C.3	1	RES1	0.000	
31	 C54	11.378	50.537	85.017	C.2	1	RES1	0.000	
32	 C55	12.136	50.258	83.876	C.2	1	RES1	0.000	
33	 C56	15.567	50.843	80.463	C.2	1	RES1	0.000	
@<TRIPOS>BOND
1 1 5 1
2 2 16 1
3 2 17 1
4 3 17 2
5 4 8 ar
6 4 33 ar
7 5 8 ar
8 5 18 ar
9 8 11 1
10 11 13 ar
11 11 32 ar
12 13 14 ar
13 14 15 ar
14 15 16 1
15 6 19 1
16 17 19 1
17 19 20 1
18 20 21 1
19 7 21 1
20 21 22 1
21 6 22 1
22 6 23 1
23 10 23 2
24 23 24 1
25 9 24 1
26 24 27 1
27 9 25 1
28 12 25 2
29 25 26 1
30 27 28 1
31 27 29 1
32 27 30 1
33 15 31 ar
34 31 32 ar
35 18 33 ar
@<TRIPOS>SUBSTRUCTURE
1	RES1	1	GROUP	1 ****	RES
