# created with PyMOL 2.5.2
@<TRIPOS>MOLECULE
BRD4_5NVY_E3ligase
32 34 1                 
SMALL
USER_CHARGES
@<TRIPOS>ATOM
1	  C1	10.581	54.438	95.480	C.3	1	RES1	0.000	
2	  N1	11.842	53.087	93.963	N.pl3	1	RES1	0.000	
3	  O1	12.184	55.369	94.001	O.2	1	RES1	0.000	
4	  S1	15.490	51.531	81.951	S.2	1	RES1	0.000	
5	  C2	11.618	54.369	94.387	C.2	1	RES1	0.000	
6	  N2	12.995	53.512	90.470	N.pl3	1	RES1	0.000	
7	  O2	10.926	53.021	91.365	O.2	1	RES1	0.000	
8	  C3	12.808	52.760	92.878	C.3	1	RES1	0.000	
9	  N3	10.992	52.716	87.460	N.pl3	1	RES1	0.000	
10	  O3	14.214	56.170	89.704	O.3	1	RES1	0.000	
11	  C4	12.142	53.134	91.530	C.2	1	RES1	0.000	
12	  N4	14.592	50.629	79.728	N.2	1	RES1	0.000	
13	  O4	12.224	51.379	88.866	O.2	1	RES1	0.000	
14	  C5	14.393	53.894	90.559	C.3	1	RES1	0.000	
15	  C6	14.611	54.816	89.359	C.3	1	RES1	0.000	
16	  C7	13.648	54.277	88.323	C.3	1	RES1	0.000	
17	  C8	12.450	53.755	89.135	C.3	1	RES1	0.000	
18	  C9	11.914	52.494	88.469	C.2	1	RES1	0.000	
19	 C10	10.473	51.680	86.597	C.3	1	RES1	0.000	
20	 C11	11.308	51.568	85.332	C.2	1	RES1	0.000	
21	 C12	11.250	50.411	84.587	C.2	1	RES1	0.000	
22	 C13	12.064	50.276	83.449	C.2	1	RES1	0.000	
23	 C14	12.963	51.263	83.089	C.2	1	RES1	0.000	
24	 C15	13.809	51.095	81.896	C.2	1	RES1	0.000	
25	 C16	13.520	50.645	80.626	C.2	1	RES1	0.000	
26	 C17	12.217	50.218	80.107	C.3	1	RES1	0.000	
27	 C18	15.695	51.053	80.345	C.2	1	RES1	0.000	
28	 C19	13.008	52.445	83.865	C.2	1	RES1	0.000	
29	 C20	12.179	52.584	84.989	C.2	1	RES1	0.000	
30	 C21	14.168	53.405	93.090	C.3	1	RES1	0.000	
31	 C22	14.989	52.711	94.156	C.3	1	RES1	0.000	
32	 C23	14.105	54.909	93.466	C.3	1	RES1	0.000	
@<TRIPOS>BOND
1 1 5 1
2 2 5 1
3 2 8 1
4 3 5 2
5 4 24 ar
6 4 27 ar
7 6 11 1
8 6 14 1
9 6 17 1
10 7 11 2
11 8 11 1
12 9 18 1
13 10 15 1
14 13 18 2
15 14 15 1
16 15 16 1
17 16 17 1
18 17 18 1
19 9 19 1
20 19 20 1
21 20 21 ar
22 20 29 ar
23 21 22 ar
24 22 23 ar
25 23 24 1
26 23 28 ar
27 24 25 ar
28 12 25 ar
29 25 26 1
30 12 27 ar
31 28 29 ar
32 8 30 1
33 30 31 1
34 30 32 1
@<TRIPOS>SUBSTRUCTURE
1	RES1	1	GROUP	1 ****	RES
