# created with PyMOL 2.5.2
@<TRIPOS>MOLECULE
BRD4_5NVY_E3ligase
32 35 1                 
SMALL
USER_CHARGES
@<TRIPOS>ATOM
1	  C1	10.526	54.434	95.406	C.3	1	RES1	0.000	
2	  N1	11.829	53.014	93.927	N.3	1	RES1	0.000	
3	  O1	12.218	55.290	93.933	O.3	1	RES1	0.000	
4	  S1	15.456	51.552	81.885	S.2	1	RES1	0.000	
5	  C2	11.596	54.327	94.350	C.3	1	RES1	0.000	
6	  N2	12.991	53.521	90.523	N.pl3	1	RES1	0.000	
7	  O2	10.942	53.016	91.396	O.2	1	RES1	0.000	
8	  C3	12.819	52.711	92.895	C.3	1	RES1	0.000	
9	  N3	11.009	52.809	87.428	N.pl3	1	RES1	0.000	
10	  O3	14.251	56.188	89.810	O.3	1	RES1	0.000	
11	  C4	12.167	53.104	91.554	C.2	1	RES1	0.000	
12	  N4	14.553	50.588	79.682	N.2	1	RES1	0.000	
13	  O4	12.187	51.406	88.870	O.2	1	RES1	0.000	
14	  C5	14.403	53.893	90.582	C.3	1	RES1	0.000	
15	  C6	14.584	54.863	89.440	C.3	1	RES1	0.000	
16	  C7	13.646	54.362	88.396	C.3	1	RES1	0.000	
17	  C8	12.457	53.792	89.167	C.3	1	RES1	0.000	
18	  C9	11.909	52.537	88.455	C.2	1	RES1	0.000	
19	 C10	10.483	51.767	86.579	C.3	1	RES1	0.000	
20	 C11	11.329	51.595	85.345	C.2	1	RES1	0.000	
21	 C12	12.217	52.641	84.931	C.2	1	RES1	0.000	
22	 C13	13.025	52.441	83.822	C.2	1	RES1	0.000	
23	 C14	12.985	51.260	83.062	C.2	1	RES1	0.000	
24	 C15	13.819	51.091	81.877	C.2	1	RES1	0.000	
25	 C16	13.518	50.568	80.625	C.2	1	RES1	0.000	
26	 C17	12.203	50.026	80.146	C.3	1	RES1	0.000	
27	 C18	15.606	51.079	80.246	C.2	1	RES1	0.000	
28	 C19	12.116	50.254	83.484	C.2	1	RES1	0.000	
29	 C20	11.295	50.416	84.616	C.2	1	RES1	0.000	
30	 C21	14.141	53.449	93.170	C.3	1	RES1	0.000	
31	 C22	14.033	54.988	93.185	C.3	1	RES1	0.000	
32	 C23	15.257	53.026	92.191	C.3	1	RES1	0.000	
@<TRIPOS>BOND
1 1 5 1
2 2 5 1
3 2 8 1
4 3 5 1
5 4 24 ar
6 4 27 ar
7 6 11 1
8 6 14 1
9 6 17 1
10 7 11 2
11 8 11 1
12 9 18 1
13 10 15 1
14 13 18 2
15 14 15 1
16 15 16 1
17 16 17 1
18 17 18 1
19 9 19 1
20 19 20 1
21 20 21 ar
22 20 29 ar
23 21 22 ar
24 22 23 ar
25 23 24 1
26 23 28 ar
27 24 25 ar
28 12 25 ar
29 25 26 1
30 12 27 ar
31 28 29 ar
32 8 30 1
33 30 31 1
34 30 32 1
35 14 32 1
@<TRIPOS>SUBSTRUCTURE
1	RES1	1	GROUP	1 ****	RES
