# created with PyMOL 2.5.2
@<TRIPOS>MOLECULE
BRD4_5NVY_E3ligase
32 35 1                 
SMALL
USER_CHARGES
@<TRIPOS>ATOM
1	  C1	10.741	54.493	95.651	C.3	1	RES1	0.000	
2	  N1	11.879	53.108	94.063	N.3	1	RES1	0.000	
3	  O1	12.283	55.378	94.059	O.3	1	RES1	0.000	
4	  S1	15.478	51.592	81.780	S.2	1	RES1	0.000	
5	  C2	11.690	54.386	94.505	C.3	1	RES1	0.000	
6	  N2	12.812	53.506	90.529	N.pl3	1	RES1	0.000	
7	  O2	10.813	53.093	91.535	O.2	1	RES1	0.000	
8	  C3	12.756	52.777	92.930	C.3	1	RES1	0.000	
9	  N3	11.032	52.796	87.368	N.pl3	1	RES1	0.000	
10	  O3	14.220	56.110	90.049	O.3	1	RES1	0.000	
11	  C4	12.029	53.161	91.629	C.2	1	RES1	0.000	
12	  N4	14.547	50.511	79.636	N.2	1	RES1	0.000	
13	  O4	12.344	51.444	88.659	O.2	1	RES1	0.000	
14	  C5	14.239	53.757	90.645	C.3	1	RES1	0.000	
15	  C6	14.525	54.784	89.557	C.3	1	RES1	0.000	
16	  C7	13.565	54.406	88.439	C.3	1	RES1	0.000	
17	  C8	12.356	53.793	89.177	C.3	1	RES1	0.000	
18	  C9	11.902	52.538	88.416	C.2	1	RES1	0.000	
19	 C10	10.524	51.758	86.495	C.3	1	RES1	0.000	
20	 C11	11.376	51.567	85.278	C.2	1	RES1	0.000	
21	 C12	12.265	52.589	84.882	C.2	1	RES1	0.000	
22	 C13	13.055	52.415	83.753	C.2	1	RES1	0.000	
23	 C14	13.013	51.241	83.002	C.2	1	RES1	0.000	
24	 C15	13.855	51.067	81.788	C.2	1	RES1	0.000	
25	 C16	13.516	50.536	80.547	C.2	1	RES1	0.000	
26	 C17	12.223	50.014	80.082	C.3	1	RES1	0.000	
27	 C18	15.631	51.027	80.172	C.2	1	RES1	0.000	
28	 C19	12.130	50.243	83.402	C.2	1	RES1	0.000	
29	 C20	11.330	50.387	84.531	C.2	1	RES1	0.000	
30	 C21	14.147	53.517	93.045	C.3	1	RES1	0.000	
31	 C22	15.026	52.769	94.029	C.3	1	RES1	0.000	
32	 C23	14.051	54.977	93.467	C.3	1	RES1	0.000	
@<TRIPOS>BOND
1 1 5 1
2 2 5 1
3 2 8 1
4 3 5 1
5 3 32 1
6 4 24 ar
7 4 27 ar
8 6 11 1
9 6 14 1
10 6 17 1
11 7 11 2
12 8 11 1
13 9 18 1
14 10 15 1
15 13 18 2
16 14 15 1
17 15 16 1
18 16 17 1
19 17 18 1
20 9 19 1
21 19 20 1
22 20 21 ar
23 20 29 ar
24 21 22 ar
25 22 23 ar
26 23 24 1
27 23 28 ar
28 24 25 ar
29 12 25 ar
30 25 26 1
31 12 27 ar
32 28 29 ar
33 8 30 1
34 30 31 1
35 30 32 1
@<TRIPOS>SUBSTRUCTURE
1	RES1	1	GROUP	1 ****	RES
