# created with PyMOL 2.5.2
@<TRIPOS>MOLECULE
BRD4_5NVY_E3ligase
32 35 1                 
SMALL
USER_CHARGES
@<TRIPOS>ATOM
1	  C1	10.610	54.394	95.617	C.3	1	RES1	0.000	
2	  N1	11.799	53.040	94.032	N.3	1	RES1	0.000	
3	  O1	12.230	55.285	94.117	O.3	1	RES1	0.000	
4	  S1	15.447	51.733	81.826	S.2	1	RES1	0.000	
5	  C2	11.626	54.316	94.524	C.3	1	RES1	0.000	
6	  N2	12.712	53.624	90.555	N.pl3	1	RES1	0.000	
7	  O2	10.723	53.070	91.517	O.2	1	RES1	0.000	
8	  C3	12.672	52.737	92.901	C.3	1	RES1	0.000	
9	  N3	11.024	52.740	87.455	N.pl3	1	RES1	0.000	
10	  O3	15.371	55.570	89.170	O.3	1	RES1	0.000	
11	  C4	11.967	53.174	91.619	C.2	1	RES1	0.000	
12	  N4	14.549	50.596	79.679	N.2	1	RES1	0.000	
13	  O4	12.625	51.627	88.666	O.2	1	RES1	0.000	
14	  C5	14.114	53.990	90.556	C.3	1	RES1	0.000	
15	  C6	14.458	54.483	89.149	C.3	1	RES1	0.000	
16	  C7	13.100	54.925	88.630	C.3	1	RES1	0.000	
17	  C8	12.125	53.956	89.248	C.3	1	RES1	0.000	
18	  C9	11.976	52.641	88.426	C.2	1	RES1	0.000	
19	 C10	10.606	51.585	86.661	C.3	1	RES1	0.000	
20	 C11	11.429	51.480	85.381	C.2	1	RES1	0.000	
21	 C12	12.180	52.566	84.946	C.2	1	RES1	0.000	
22	 C13	12.988	52.443	83.803	C.2	1	RES1	0.000	
23	 C14	13.021	51.244	83.067	C.2	1	RES1	0.000	
24	 C15	13.823	51.120	81.838	C.2	1	RES1	0.000	
25	 C16	13.541	50.587	80.625	C.2	1	RES1	0.000	
26	 C17	12.227	50.004	80.148	C.3	1	RES1	0.000	
27	 C18	15.608	51.198	80.208	C.2	1	RES1	0.000	
28	 C19	12.217	50.193	83.521	C.2	1	RES1	0.000	
29	 C20	11.421	50.295	84.656	C.2	1	RES1	0.000	
30	 C21	14.092	53.377	93.060	C.3	1	RES1	0.000	
31	 C22	14.064	54.906	93.084	C.3	1	RES1	0.000	
32	 C23	15.072	52.923	92.017	C.3	1	RES1	0.000	
@<TRIPOS>BOND
1 1 5 1
2 2 5 1
3 2 8 1
4 3 5 1
5 4 24 ar
6 4 27 ar
7 6 11 1
8 6 14 1
9 6 17 1
10 7 11 2
11 8 11 1
12 9 18 1
13 10 15 1
14 13 18 2
15 14 15 1
16 15 16 1
17 16 17 1
18 17 18 1
19 9 19 1
20 19 20 1
21 20 21 ar
22 20 29 ar
23 21 22 ar
24 22 23 ar
25 23 24 1
26 23 28 ar
27 24 25 ar
28 12 25 ar
29 25 26 1
30 12 27 ar
31 28 29 ar
32 8 30 1
33 30 31 1
34 30 32 1
35 14 32 1
@<TRIPOS>SUBSTRUCTURE
1	RES1	1	GROUP	1 ****	RES
