# created with PyMOL 2.5.2
@<TRIPOS>MOLECULE
BRD4_5NVY_E3ligase
32 34 1                 
SMALL
USER_CHARGES
@<TRIPOS>ATOM
1	  C1	10.576	54.174	95.557	C.3	1	RES1	0.000	
2	  N1	11.734	52.893	93.920	N.pl3	1	RES1	0.000	
3	  O1	12.150	55.161	94.065	O.2	1	RES1	0.000	
4	  S1	15.429	51.437	81.719	S.2	1	RES1	0.000	
5	  C2	11.579	54.141	94.460	C.2	1	RES1	0.000	
6	  N2	12.942	53.620	90.519	N.pl3	1	RES1	0.000	
7	  O2	10.849	53.141	91.326	O.2	1	RES1	0.000	
8	  C3	12.680	52.607	92.805	C.3	1	RES1	0.000	
9	  N3	11.212	52.977	87.350	N.pl3	1	RES1	0.000	
10	  O3	14.114	56.380	90.343	O.3	1	RES1	0.000	
11	  C4	12.063	53.131	91.480	C.2	1	RES1	0.000	
12	  N4	14.408	50.272	79.619	N.2	1	RES1	0.000	
13	  O4	12.620	51.683	88.626	O.2	1	RES1	0.000	
14	  C5	14.322	53.988	90.674	C.3	1	RES1	0.000	
15	  C6	14.531	55.157	89.770	C.3	1	RES1	0.000	
16	  C7	13.610	54.861	88.591	C.3	1	RES1	0.000	
17	  C8	12.464	54.043	89.193	C.3	1	RES1	0.000	
18	  C9	12.157	52.784	88.388	C.2	1	RES1	0.000	
19	 C10	10.656	51.894	86.594	C.3	1	RES1	0.000	
20	 C11	11.459	51.669	85.338	C.2	1	RES1	0.000	
21	 C12	12.319	52.628	84.809	C.2	1	RES1	0.000	
22	 C13	13.069	52.422	83.666	C.2	1	RES1	0.000	
23	 C14	12.990	51.193	82.991	C.2	1	RES1	0.000	
24	 C15	13.764	50.928	81.769	C.2	1	RES1	0.000	
25	 C16	13.414	50.355	80.556	C.2	1	RES1	0.000	
26	 C17	12.079	49.824	80.177	C.3	1	RES1	0.000	
27	 C18	15.514	50.801	80.104	C.2	1	RES1	0.000	
28	 C19	12.106	50.231	83.477	C.2	1	RES1	0.000	
29	 C20	11.353	50.456	84.633	C.2	1	RES1	0.000	
30	 C21	14.118	53.152	93.098	C.3	1	RES1	0.000	
31	 C22	14.831	52.295	94.147	C.3	1	RES1	0.000	
32	 C23	14.109	54.620	93.552	C.3	1	RES1	0.000	
@<TRIPOS>BOND
1 1 5 1
2 2 5 1
3 2 8 1
4 3 5 2
5 4 24 ar
6 4 27 ar
7 6 11 1
8 6 14 1
9 6 17 1
10 7 11 2
11 8 11 1
12 9 18 1
13 10 15 1
14 13 18 2
15 14 15 1
16 15 16 1
17 16 17 1
18 17 18 1
19 9 19 1
20 19 20 1
21 20 21 ar
22 20 29 ar
23 21 22 ar
24 22 23 ar
25 23 24 1
26 23 28 ar
27 24 25 ar
28 12 25 ar
29 25 26 1
30 12 27 ar
31 28 29 ar
32 8 30 1
33 30 31 1
34 30 32 1
@<TRIPOS>SUBSTRUCTURE
1	RES1	1	GROUP	1 ****	RES
