# created with PyMOL 2.5.2
@<TRIPOS>MOLECULE
BRD4_5NVY_E3ligase
32 35 1                 
SMALL
USER_CHARGES
@<TRIPOS>ATOM
1	  C1	10.431	54.103	95.480	C.3	1	RES1	0.000	
2	  N1	11.762	52.862	93.866	N.3	1	RES1	0.000	
3	  O1	12.073	55.124	94.094	O.3	1	RES1	0.000	
4	  S1	15.410	51.327	81.742	S.2	1	RES1	0.000	
5	  C2	11.504	54.097	94.415	C.3	1	RES1	0.000	
6	  N2	13.006	53.662	90.545	N.pl3	1	RES1	0.000	
7	  O2	10.943	52.985	91.281	O.2	1	RES1	0.000	
8	  C3	12.751	52.622	92.810	C.3	1	RES1	0.000	
9	  N3	11.245	53.021	87.368	N.pl3	1	RES1	0.000	
10	  O3	14.076	56.448	90.288	O.3	1	RES1	0.000	
11	  C4	12.147	53.104	91.504	C.2	1	RES1	0.000	
12	  N4	14.412	50.266	79.616	N.2	1	RES1	0.000	
13	  O4	12.600	51.667	88.677	O.2	1	RES1	0.000	
14	  C5	14.379	54.042	90.722	C.3	1	RES1	0.000	
15	  C6	14.557	55.192	89.707	C.3	1	RES1	0.000	
16	  C7	13.667	54.832	88.563	C.3	1	RES1	0.000	
17	  C8	12.523	54.048	89.211	C.3	1	RES1	0.000	
18	  C9	12.184	52.793	88.386	C.2	1	RES1	0.000	
19	 C10	10.662	51.939	86.596	C.3	1	RES1	0.000	
20	 C11	11.429	51.697	85.311	C.2	1	RES1	0.000	
21	 C12	11.303	50.477	84.634	C.2	1	RES1	0.000	
22	 C13	12.067	50.241	83.479	C.2	1	RES1	0.000	
23	 C14	12.943	51.218	82.974	C.2	1	RES1	0.000	
24	 C15	13.751	50.944	81.774	C.2	1	RES1	0.000	
25	 C16	13.383	50.364	80.561	C.2	1	RES1	0.000	
26	 C17	12.059	49.834	80.161	C.3	1	RES1	0.000	
27	 C18	15.508	50.783	80.147	C.2	1	RES1	0.000	
28	 C19	13.067	52.400	83.687	C.2	1	RES1	0.000	
29	 C20	12.348	52.642	84.835	C.2	1	RES1	0.000	
30	 C21	14.091	53.269	93.185	C.3	1	RES1	0.000	
31	 C22	14.014	54.817	93.321	C.3	1	RES1	0.000	
32	 C23	15.214	52.891	92.190	C.3	1	RES1	0.000	
@<TRIPOS>BOND
1 1 5 1
2 2 5 1
3 2 8 1
4 3 5 1
5 4 24 ar
6 4 27 ar
7 6 11 1
8 6 14 1
9 6 17 1
10 7 11 2
11 8 11 1
12 9 18 1
13 10 15 1
14 13 18 2
15 14 15 1
16 15 16 1
17 16 17 1
18 17 18 1
19 9 19 1
20 19 20 1
21 20 21 ar
22 20 29 ar
23 21 22 ar
24 22 23 ar
25 23 24 1
26 23 28 ar
27 24 25 ar
28 12 25 ar
29 25 26 1
30 12 27 ar
31 28 29 ar
32 8 30 1
33 30 31 1
34 30 32 1
35 14 32 1
@<TRIPOS>SUBSTRUCTURE
1	RES1	1	GROUP	1 ****	RES
