# created with PyMOL 2.5.2
@<TRIPOS>MOLECULE
CRBN_6H0G_E3ligase
20 22 1                 
SMALL
USER_CHARGES
@<TRIPOS>ATOM
1	  C1	3.393	50.715	-78.371	C.2	1	RES1	0.000	
2	  N1	1.705	51.032	-82.303	N.2	1	RES1	0.000	
3	  O1	3.851	50.738	-77.255	O.2	1	RES1	0.000	
4	  C2	3.997	49.906	-79.470	C.3	1	RES1	0.000	
5	  N2	1.668	54.677	-84.760	N.pl3	1	RES1	0.000	
6	  O2	0.678	49.090	-83.138	O.2	1	RES1	0.000	
7	  C3	3.668	50.466	-80.836	C.3	1	RES1	0.000	
8	  C4	2.152	50.550	-80.982	C.3	1	RES1	0.000	
9	  C5	1.020	50.257	-83.219	C.2	1	RES1	0.000	
10	  C6	0.724	51.133	-84.353	C.2	1	RES1	0.000	
11	  N6	2.214	51.370	-78.679	N.pl3	1	RES1	0.000	
12	  C7	0.077	50.816	-85.541	C.2	1	RES1	0.000	
13	  C8	-0.036	51.852	-86.491	C.2	1	RES1	0.000	
14	  C9	0.479	53.139	-86.217	C.2	1	RES1	0.000	
15	  O9	2.332	53.307	-82.203	O.2	1	RES1	0.000	
16	 C10	1.100	53.433	-85.007	C.2	1	RES1	0.000	
17	 O10	0.486	52.000	-80.012	O.2	1	RES1	0.000	
18	 C30	1.219	52.391	-84.094	C.2	1	RES1	0.000	
19	 C31	1.856	52.325	-82.750	C.2	1	RES1	0.000	
20	 C32	1.543	51.396	-79.884	C.2	1	RES1	0.000	
@<TRIPOS>BOND
1 1 3 2
2 1 4 1
3 1 11 1
4 2 8 1
5 2 9 ar
6 2 19 ar
7 4 7 1
8 6 9 2
9 7 8 1
10 9 10 ar
11 10 12 ar
12 12 13 ar
13 13 14 ar
14 5 16 1
15 14 16 ar
16 16 18 ar
17 17 20 2
18 10 18 ar
19 18 19 ar
20 15 19 2
21 8 20 1
22 11 20 1
@<TRIPOS>SUBSTRUCTURE
1	RES1	1	GROUP	1 ****	RES
