# created with PyMOL 2.5.2
@<TRIPOS>MOLECULE
BRD4_5NVY_E3ligase
32 34 1                 
SMALL
USER_CHARGES
@<TRIPOS>ATOM
1	  C1	10.747	54.509	95.608	C.3	1	RES1	0.000	
2	  N1	11.809	53.096	94.015	N.3	1	RES1	0.000	
3	  O1	12.313	55.341	94.013	O.3	1	RES1	0.000	
4	  S1	15.437	51.566	81.900	S.2	1	RES1	0.000	
5	  C2	11.715	54.383	94.460	C.3	1	RES1	0.000	
6	  N2	12.893	53.472	90.498	N.pl3	1	RES1	0.000	
7	  O2	10.850	53.257	91.480	O.2	1	RES1	0.000	
8	  C3	12.717	52.709	92.907	C.3	1	RES1	0.000	
9	  N3	10.995	52.793	87.380	N.pl3	1	RES1	0.000	
10	  O3	14.212	56.155	90.073	O.3	1	RES1	0.000	
11	  C4	12.071	53.175	91.568	C.2	1	RES1	0.000	
12	  N4	14.616	50.589	79.683	N.2	1	RES1	0.000	
13	  O4	12.401	51.445	88.559	O.2	1	RES1	0.000	
14	  C5	14.334	53.761	90.572	C.3	1	RES1	0.000	
15	  C6	14.533	54.858	89.553	C.3	1	RES1	0.000	
16	  C7	13.573	54.499	88.445	C.3	1	RES1	0.000	
17	  C8	12.389	53.809	89.165	C.3	1	RES1	0.000	
18	  C9	11.899	52.578	88.383	C.2	1	RES1	0.000	
19	 C10	10.472	51.731	86.565	C.3	1	RES1	0.000	
20	 C11	11.326	51.563	85.292	C.2	1	RES1	0.000	
21	 C12	12.168	52.589	84.875	C.2	1	RES1	0.000	
22	 C13	12.951	52.441	83.736	C.2	1	RES1	0.000	
23	 C14	12.924	51.233	82.994	C.2	1	RES1	0.000	
24	 C15	13.815	51.064	81.834	C.2	1	RES1	0.000	
25	 C16	13.554	50.538	80.572	C.2	1	RES1	0.000	
26	 C17	12.295	49.927	80.073	C.3	1	RES1	0.000	
27	 C18	15.673	51.103	80.294	C.2	1	RES1	0.000	
28	 C19	12.119	50.204	83.435	C.2	1	RES1	0.000	
29	 C20	11.320	50.354	84.579	C.2	1	RES1	0.000	
30	 C21	14.157	53.255	93.092	C.3	1	RES1	0.000	
31	 C22	14.872	52.554	94.244	C.3	1	RES1	0.000	
32	 C23	14.212	54.758	93.245	C.3	1	RES1	0.000	
@<TRIPOS>BOND
1 1 5 1
2 2 5 1
3 2 8 1
4 3 5 1
5 4 24 ar
6 4 27 ar
7 6 11 1
8 6 14 1
9 6 17 1
10 7 11 2
11 8 11 1
12 9 18 1
13 10 15 1
14 13 18 2
15 14 15 1
16 15 16 1
17 16 17 1
18 17 18 1
19 9 19 1
20 19 20 1
21 20 21 ar
22 20 29 ar
23 21 22 ar
24 22 23 ar
25 23 24 1
26 23 28 ar
27 24 25 ar
28 12 25 ar
29 25 26 1
30 12 27 ar
31 28 29 ar
32 8 30 1
33 30 31 1
34 30 32 1
@<TRIPOS>SUBSTRUCTURE
1	RES1	1	GROUP	1 ****	RES
