# created with PyMOL 2.5.2
@<TRIPOS>MOLECULE
BRD4_5NVV_E3ligase
35 37 1                 
SMALL
USER_CHARGES
@<TRIPOS>ATOM
1	  C1	12.677	49.917	80.673	C.3	1	RES1	0.000	
2	  N1	11.586	53.235	87.754	N.pl3	1	RES1	0.000	
3	  O1	12.788	52.047	89.321	O.2	1	RES1	0.000	
4	  C2	13.992	50.452	81.077	C.2	1	RES1	0.000	
5	  N2	12.916	54.177	91.072	N.pl3	1	RES1	0.000	
6	  O2	14.324	56.811	90.625	O.3	1	RES1	0.000	
7	  S2	16.014	51.560	82.174	S.2	1	RES1	0.000	
8	  C3	14.351	51.076	82.272	C.2	1	RES1	0.000	
9	  N3	11.396	54.441	94.293	N.pl3	1	RES1	0.000	
10	  O3	10.795	53.716	91.766	O.2	1	RES1	0.000	
11	  C4	13.569	51.334	83.477	C.2	1	RES1	0.000	
12	  O4	12.501	56.379	94.845	O.2	1	RES1	0.000	
13	  C5	12.700	50.349	83.982	C.2	1	RES1	0.000	
14	  O5	10.393	57.364	96.328	O.3	1	RES1	0.000	
15	  C6	11.943	50.606	85.131	C.2	1	RES1	0.000	
16	  C7	11.976	51.837	85.773	C.2	1	RES1	0.000	
17	  C8	11.121	52.078	87.004	C.3	1	RES1	0.000	
18	  C9	9.651	52.223	86.622	C.3	1	RES1	0.000	
19	  N9	15.020	50.362	80.114	N.2	1	RES1	0.000	
20	 C10	12.407	53.122	88.855	C.2	1	RES1	0.000	
21	 C11	12.726	54.414	89.632	C.3	1	RES1	0.000	
22	 C12	14.103	54.937	89.153	C.3	1	RES1	0.000	
23	 C13	14.778	55.471	90.393	C.3	1	RES1	0.000	
24	 C14	14.295	54.518	91.478	C.3	1	RES1	0.000	
25	 C15	11.967	53.892	92.043	C.2	1	RES1	0.000	
26	 C16	12.426	53.809	93.505	C.3	1	RES1	0.000	
27	 C17	11.505	55.696	94.891	C.2	1	RES1	0.000	
28	 C18	10.271	56.107	95.675	C.3	1	RES1	0.000	
29	 C43	12.720	52.351	93.991	C.3	1	RES1	0.000	
30	 C44	11.462	51.414	93.946	C.3	1	RES1	0.000	
31	 C45	13.238	52.380	95.451	C.3	1	RES1	0.000	
32	 C46	13.820	51.692	93.145	C.3	1	RES1	0.000	
33	 C47	12.857	52.831	85.269	C.2	1	RES1	0.000	
34	 C48	13.610	52.584	84.127	C.2	1	RES1	0.000	
35	 C49	16.110	50.919	80.612	C.2	1	RES1	0.000	
@<TRIPOS>BOND
1 1 4 1
2 2 17 1
3 2 20 1
4 3 20 2
5 4 8 ar
6 4 19 ar
7 7 8 ar
8 7 35 ar
9 8 11 1
10 11 13 ar
11 11 34 ar
12 13 15 ar
13 15 16 ar
14 16 17 1
15 17 18 1
16 20 21 1
17 5 21 1
18 21 22 1
19 22 23 1
20 6 23 1
21 23 24 1
22 5 24 1
23 5 25 1
24 10 25 2
25 25 26 1
26 9 26 1
27 26 29 1
28 9 27 1
29 12 27 2
30 27 28 1
31 14 28 1
32 29 30 1
33 29 31 1
34 29 32 1
35 16 33 ar
36 33 34 ar
37 19 35 ar
@<TRIPOS>SUBSTRUCTURE
1	RES1	1	GROUP	1 ****	RES
