# created with PyMOL 2.5.2
@<TRIPOS>MOLECULE
BRD4_5NVV_E3ligase
35 37 1                 
SMALL
USER_CHARGES
@<TRIPOS>ATOM
1	  C1	12.693	49.938	80.796	C.3	1	RES1	0.000	
2	  N1	11.484	53.167	87.867	N.pl3	1	RES1	0.000	
3	  O1	12.781	51.893	89.293	O.2	1	RES1	0.000	
4	  C2	13.986	50.538	81.184	C.2	1	RES1	0.000	
5	  N2	13.159	54.122	91.048	N.pl3	1	RES1	0.000	
6	  O2	14.345	56.819	90.203	O.3	1	RES1	0.000	
7	  S2	15.904	51.698	82.375	S.2	1	RES1	0.000	
8	  C3	14.266	51.152	82.437	C.2	1	RES1	0.000	
9	  N3	11.448	54.432	94.208	N.pl3	1	RES1	0.000	
10	  O3	10.980	53.619	91.619	O.2	1	RES1	0.000	
11	  C4	13.440	51.413	83.598	C.2	1	RES1	0.000	
12	  O4	12.687	56.287	94.834	O.2	1	RES1	0.000	
13	  C5	13.470	52.641	84.276	C.2	1	RES1	0.000	
14	  O5	10.533	57.462	96.077	O.3	1	RES1	0.000	
15	  C6	12.648	52.853	85.380	C.2	1	RES1	0.000	
16	  C7	11.764	51.867	85.864	C.2	1	RES1	0.000	
17	  C8	10.938	52.085	87.103	C.3	1	RES1	0.000	
18	  C9	9.440	52.273	86.838	C.3	1	RES1	0.000	
19	  N9	15.018	50.440	80.335	N.2	1	RES1	0.000	
20	 C10	12.385	52.977	88.911	C.2	1	RES1	0.000	
21	 C11	12.825	54.284	89.637	C.3	1	RES1	0.000	
22	 C12	14.144	54.767	88.981	C.3	1	RES1	0.000	
23	 C13	14.839	55.467	90.097	C.3	1	RES1	0.000	
24	 C14	14.478	54.666	91.340	C.3	1	RES1	0.000	
25	 C15	12.135	53.841	92.003	C.2	1	RES1	0.000	
26	 C16	12.526	53.747	93.484	C.3	1	RES1	0.000	
27	 C17	11.613	55.683	94.780	C.2	1	RES1	0.000	
28	 C18	10.356	56.222	95.415	C.3	1	RES1	0.000	
29	 C43	12.755	52.291	94.008	C.3	1	RES1	0.000	
30	 C44	11.404	51.534	94.090	C.3	1	RES1	0.000	
31	 C45	13.321	52.330	95.445	C.3	1	RES1	0.000	
32	 C46	13.708	51.474	93.119	C.3	1	RES1	0.000	
33	 C47	11.711	50.669	85.149	C.2	1	RES1	0.000	
34	 C48	12.531	50.437	84.031	C.2	1	RES1	0.000	
35	 C49	16.073	51.044	80.833	C.2	1	RES1	0.000	
@<TRIPOS>BOND
1 1 4 1
2 2 17 1
3 2 20 1
4 3 20 2
5 4 8 ar
6 4 19 ar
7 7 8 ar
8 7 35 ar
9 8 11 1
10 11 13 ar
11 11 34 ar
12 13 15 ar
13 15 16 ar
14 16 17 1
15 17 18 1
16 20 21 1
17 5 21 1
18 21 22 1
19 22 23 1
20 6 23 1
21 23 24 1
22 5 24 1
23 5 25 1
24 10 25 2
25 25 26 1
26 9 26 1
27 26 29 1
28 9 27 1
29 12 27 2
30 27 28 1
31 14 28 1
32 29 30 1
33 29 31 1
34 29 32 1
35 16 33 ar
36 33 34 ar
37 19 35 ar
@<TRIPOS>SUBSTRUCTURE
1	RES1	1	GROUP	1 ****	RES
