# created with PyMOL 2.5.2
@<TRIPOS>MOLECULE
BRD4_5NVV_E3ligase
34 36 1                 
SMALL
USER_CHARGES
@<TRIPOS>ATOM
1	  C1	12.624	49.942	80.770	C.3	1	RES1	0.000	
2	  N1	11.554	53.217	87.862	N.pl3	1	RES1	0.000	
3	  O1	12.783	51.942	89.348	O.2	1	RES1	0.000	
4	  C2	13.943	50.494	81.205	C.2	1	RES1	0.000	
5	  N2	13.179	54.163	91.050	N.pl3	1	RES1	0.000	
6	  O2	14.397	56.859	90.368	O.3	1	RES1	0.000	
7	  S2	15.880	51.665	82.365	S.2	1	RES1	0.000	
8	  C3	14.238	51.123	82.423	C.2	1	RES1	0.000	
9	  N3	11.396	54.411	94.189	N.pl3	1	RES1	0.000	
10	  O3	11.010	53.617	91.577	O.2	1	RES1	0.000	
11	  C4	13.413	51.380	83.604	C.2	1	RES1	0.000	
12	  O4	12.630	56.272	94.819	O.2	1	RES1	0.000	
13	  C5	12.546	50.404	84.077	C.2	1	RES1	0.000	
14	  O5	10.506	57.425	96.108	O.3	1	RES1	0.000	
15	  C6	11.756	50.633	85.188	C.2	1	RES1	0.000	
16	  C7	11.807	51.855	85.880	C.2	1	RES1	0.000	
17	  C8	11.001	52.089	87.109	C.3	1	RES1	0.000	
18	  C9	12.444	53.054	88.904	C.2	1	RES1	0.000	
19	  N9	14.974	50.424	80.293	N.2	1	RES1	0.000	
20	 C10	12.848	54.353	89.633	C.3	1	RES1	0.000	
21	 C11	14.127	54.891	89.022	C.3	1	RES1	0.000	
22	 C12	14.858	55.548	90.170	C.3	1	RES1	0.000	
23	 C13	14.488	54.654	91.352	C.3	1	RES1	0.000	
24	 C14	12.158	53.857	91.968	C.2	1	RES1	0.000	
25	 C15	12.499	53.739	93.456	C.3	1	RES1	0.000	
26	 C16	11.587	55.671	94.797	C.2	1	RES1	0.000	
27	 C17	10.298	56.181	95.439	C.3	1	RES1	0.000	
28	 C43	12.749	52.283	93.969	C.3	1	RES1	0.000	
29	 C44	11.403	51.496	93.953	C.3	1	RES1	0.000	
30	 C45	13.271	52.294	95.391	C.3	1	RES1	0.000	
31	 C46	13.769	51.506	93.085	C.3	1	RES1	0.000	
32	 C47	12.681	52.840	85.408	C.2	1	RES1	0.000	
33	 C48	13.494	52.601	84.272	C.2	1	RES1	0.000	
34	 C49	16.042	50.993	80.786	C.2	1	RES1	0.000	
@<TRIPOS>BOND
1 1 4 1
2 2 17 1
3 2 18 1
4 3 18 2
5 4 8 ar
6 4 19 ar
7 7 8 ar
8 7 34 ar
9 8 11 1
10 11 13 ar
11 11 33 ar
12 13 15 ar
13 15 16 ar
14 16 17 1
15 5 20 1
16 18 20 1
17 20 21 1
18 21 22 1
19 6 22 1
20 22 23 1
21 5 23 1
22 5 24 1
23 10 24 2
24 24 25 1
25 9 25 1
26 25 28 1
27 9 26 1
28 12 26 2
29 26 27 1
30 14 27 1
31 28 29 1
32 28 30 1
33 28 31 1
34 16 32 ar
35 32 33 ar
36 19 34 ar
@<TRIPOS>SUBSTRUCTURE
1	RES1	1	GROUP	1 ****	RES
