# created with PyMOL 2.5.2
@<TRIPOS>MOLECULE
BRD4_5NVV_E3ligase
34 36 1                 
SMALL
USER_CHARGES
@<TRIPOS>ATOM
1	  C1	12.684	49.906	80.785	C.3	1	RES1	0.000	
2	  N1	11.576	53.191	87.907	N.pl3	1	RES1	0.000	
3	  O1	12.874	51.997	89.368	O.2	1	RES1	0.000	
4	  C2	13.950	50.538	81.142	C.2	1	RES1	0.000	
5	  N2	13.096	54.155	91.068	N.pl3	1	RES1	0.000	
6	  O2	14.381	56.837	90.497	O.3	1	RES1	0.000	
7	  S2	15.907	51.637	82.345	S.2	1	RES1	0.000	
8	  C3	14.267	51.121	82.375	C.2	1	RES1	0.000	
9	  N3	11.360	54.440	94.209	N.pl3	1	RES1	0.000	
10	  O3	10.917	53.714	91.582	O.2	1	RES1	0.000	
11	  C4	13.473	51.328	83.585	C.2	1	RES1	0.000	
12	  O4	12.600	56.292	94.804	O.2	1	RES1	0.000	
13	  C5	13.532	52.553	84.259	C.2	1	RES1	0.000	
14	  O5	10.461	57.431	96.145	O.3	1	RES1	0.000	
15	  C6	12.753	52.783	85.397	C.2	1	RES1	0.000	
16	  C7	11.900	51.788	85.886	C.2	1	RES1	0.000	
17	  C8	11.080	52.037	87.121	C.3	1	RES1	0.000	
18	  C9	12.449	53.043	88.963	C.2	1	RES1	0.000	
19	  N9	14.975	50.517	80.209	N.2	1	RES1	0.000	
20	 C10	12.828	54.384	89.607	C.3	1	RES1	0.000	
21	 C11	14.123	54.947	89.046	C.3	1	RES1	0.000	
22	 C12	14.855	55.506	90.244	C.3	1	RES1	0.000	
23	 C13	14.451	54.563	91.373	C.3	1	RES1	0.000	
24	 C14	12.068	53.880	91.963	C.2	1	RES1	0.000	
25	 C15	12.440	53.772	93.458	C.3	1	RES1	0.000	
26	 C16	11.554	55.671	94.794	C.2	1	RES1	0.000	
27	 C17	10.283	56.200	95.483	C.3	1	RES1	0.000	
28	 C43	12.673	52.285	93.906	C.3	1	RES1	0.000	
29	 C44	11.392	51.425	93.866	C.3	1	RES1	0.000	
30	 C45	13.198	52.294	95.378	C.3	1	RES1	0.000	
31	 C46	13.754	51.640	93.038	C.3	1	RES1	0.000	
32	 C47	11.845	50.579	85.243	C.2	1	RES1	0.000	
33	 C48	12.614	50.347	84.089	C.2	1	RES1	0.000	
34	 C49	16.041	51.076	80.713	C.2	1	RES1	0.000	
@<TRIPOS>BOND
1 1 4 1
2 2 17 1
3 2 18 1
4 3 18 2
5 4 8 ar
6 4 19 ar
7 7 8 ar
8 7 34 ar
9 8 11 1
10 11 13 ar
11 11 33 ar
12 13 15 ar
13 15 16 ar
14 16 17 1
15 5 20 1
16 18 20 1
17 20 21 1
18 21 22 1
19 6 22 1
20 22 23 1
21 5 23 1
22 5 24 1
23 10 24 2
24 24 25 1
25 9 25 1
26 25 28 1
27 9 26 1
28 12 26 2
29 26 27 1
30 14 27 1
31 28 29 1
32 28 30 1
33 28 31 1
34 16 32 ar
35 32 33 ar
36 19 34 ar
@<TRIPOS>SUBSTRUCTURE
1	RES1	1	GROUP	1 ****	RES
