# created with PyMOL 2.5.2
@<TRIPOS>MOLECULE
BRD4_5NVV_E3ligase
34 36 1                 
SMALL
USER_CHARGES
@<TRIPOS>ATOM
1	  C1	12.761	50.113	80.769	C.3	1	RES1	0.000	
2	  N1	11.340	52.846	87.980	N.pl3	1	RES1	0.000	
3	  O1	12.943	51.949	89.339	O.2	1	RES1	0.000	
4	  C2	14.046	50.742	81.202	C.2	1	RES1	0.000	
5	  N2	12.822	54.195	91.010	N.pl3	1	RES1	0.000	
6	  O2	15.734	55.774	89.694	O.3	1	RES1	0.000	
7	  S2	15.891	51.988	82.448	S.2	1	RES1	0.000	
8	  C3	14.313	51.313	82.425	C.2	1	RES1	0.000	
9	  N3	11.416	54.544	94.297	N.pl3	1	RES1	0.000	
10	  O3	10.717	53.735	91.750	O.2	1	RES1	0.000	
11	  C4	13.490	51.412	83.671	C.2	1	RES1	0.000	
12	  O4	12.665	56.449	94.757	O.2	1	RES1	0.000	
13	  C5	12.783	50.280	84.112	C.2	1	RES1	0.000	
14	  O5	10.679	57.631	96.239	O.3	1	RES1	0.000	
15	  C6	12.007	50.362	85.257	C.2	1	RES1	0.000	
16	  C7	11.862	51.544	85.989	C.2	1	RES1	0.000	
17	  C8	11.035	51.616	87.231	C.3	1	RES1	0.000	
18	  C9	12.290	52.872	88.968	C.2	1	RES1	0.000	
19	  N9	15.056	50.848	80.271	N.2	1	RES1	0.000	
20	 C10	12.408	54.299	89.608	C.3	1	RES1	0.000	
21	 C11	13.515	55.129	88.934	C.3	1	RES1	0.000	
22	 C12	14.765	54.757	89.757	C.3	1	RES1	0.000	
23	 C13	14.201	54.578	91.167	C.3	1	RES1	0.000	
24	 C14	11.895	53.928	92.025	C.2	1	RES1	0.000	
25	 C15	12.409	53.880	93.461	C.3	1	RES1	0.000	
26	 C16	11.624	55.813	94.837	C.2	1	RES1	0.000	
27	 C17	10.442	56.337	95.631	C.3	1	RES1	0.000	
28	 C43	12.717	52.428	93.962	C.3	1	RES1	0.000	
29	 C44	11.458	51.591	94.169	C.3	1	RES1	0.000	
30	 C45	13.472	52.471	95.286	C.3	1	RES1	0.000	
31	 C46	13.623	51.686	92.925	C.3	1	RES1	0.000	
32	 C47	12.547	52.689	85.515	C.2	1	RES1	0.000	
33	 C48	13.323	52.613	84.356	C.2	1	RES1	0.000	
34	 C49	16.103	51.462	80.800	C.2	1	RES1	0.000	
@<TRIPOS>BOND
1 1 4 1
2 2 17 1
3 2 18 1
4 3 18 2
5 4 8 ar
6 4 19 ar
7 7 8 ar
8 7 34 ar
9 8 11 1
10 11 13 ar
11 11 33 ar
12 13 15 ar
13 15 16 ar
14 16 17 1
15 5 20 1
16 18 20 1
17 20 21 1
18 21 22 1
19 6 22 1
20 22 23 1
21 5 23 1
22 5 24 1
23 10 24 2
24 24 25 1
25 9 25 1
26 25 28 1
27 9 26 1
28 12 26 2
29 26 27 1
30 14 27 1
31 28 29 1
32 28 30 1
33 28 31 1
34 16 32 ar
35 32 33 ar
36 19 34 ar
@<TRIPOS>SUBSTRUCTURE
1	RES1	1	GROUP	1 ****	RES
