# created with PyMOL 2.5.2
@<TRIPOS>MOLECULE
BRD4_5NVV_E3ligase
34 36 1                 
SMALL
USER_CHARGES
@<TRIPOS>ATOM
1	  C1	12.651	49.920	80.688	C.3	1	RES1	0.000	
2	  N1	11.589	53.245	87.871	N.pl3	1	RES1	0.000	
3	  O1	12.765	51.975	89.383	O.2	1	RES1	0.000	
4	  C2	13.942	50.473	81.160	C.2	1	RES1	0.000	
5	  N2	13.173	54.187	91.083	N.pl3	1	RES1	0.000	
6	  O2	14.437	56.892	90.411	O.3	1	RES1	0.000	
7	  S2	15.858	51.607	82.366	S.2	1	RES1	0.000	
8	  C3	14.219	51.099	82.365	C.2	1	RES1	0.000	
9	  N3	11.416	54.412	94.200	N.pl3	1	RES1	0.000	
10	  O3	11.024	53.664	91.611	O.2	1	RES1	0.000	
11	  C4	13.368	51.362	83.533	C.2	1	RES1	0.000	
12	  O4	12.599	56.295	94.826	O.2	1	RES1	0.000	
13	  C5	13.428	52.594	84.190	C.2	1	RES1	0.000	
14	  O5	10.403	57.391	96.154	O.3	1	RES1	0.000	
15	  C6	12.681	52.847	85.351	C.2	1	RES1	0.000	
16	  C7	11.825	51.887	85.878	C.2	1	RES1	0.000	
17	  C8	11.028	52.124	87.099	C.3	1	RES1	0.000	
18	  C9	12.458	53.080	88.925	C.2	1	RES1	0.000	
19	  N9	14.998	50.392	80.280	N.2	1	RES1	0.000	
20	 C10	12.869	54.389	89.645	C.3	1	RES1	0.000	
21	 C11	14.143	54.912	89.022	C.3	1	RES1	0.000	
22	 C12	14.880	55.552	90.199	C.3	1	RES1	0.000	
23	 C13	14.497	54.648	91.388	C.3	1	RES1	0.000	
24	 C14	12.172	53.863	91.979	C.2	1	RES1	0.000	
25	 C15	12.502	53.734	93.479	C.3	1	RES1	0.000	
26	 C16	11.566	55.647	94.822	C.2	1	RES1	0.000	
27	 C17	10.262	56.148	95.451	C.3	1	RES1	0.000	
28	 C43	12.763	52.286	93.968	C.3	1	RES1	0.000	
29	 C44	11.454	51.470	93.915	C.3	1	RES1	0.000	
30	 C45	13.256	52.282	95.419	C.3	1	RES1	0.000	
31	 C46	13.796	51.542	93.086	C.3	1	RES1	0.000	
32	 C47	11.757	50.618	85.220	C.2	1	RES1	0.000	
33	 C48	12.535	50.391	84.061	C.2	1	RES1	0.000	
34	 C49	16.042	50.954	80.823	C.2	1	RES1	0.000	
@<TRIPOS>BOND
1 1 4 1
2 2 17 1
3 2 18 1
4 3 18 2
5 4 8 ar
6 4 19 ar
7 7 8 ar
8 7 34 ar
9 8 11 1
10 11 13 ar
11 11 33 ar
12 13 15 ar
13 15 16 ar
14 16 17 1
15 5 20 1
16 18 20 1
17 20 21 1
18 21 22 1
19 6 22 1
20 22 23 1
21 5 23 1
22 5 24 1
23 10 24 2
24 24 25 1
25 9 25 1
26 25 28 1
27 9 26 1
28 12 26 2
29 26 27 1
30 14 27 1
31 28 29 1
32 28 30 1
33 28 31 1
34 16 32 ar
35 32 33 ar
36 19 34 ar
@<TRIPOS>SUBSTRUCTURE
1	RES1	1	GROUP	1 ****	RES
