# created with PyMOL 2.5.2
@<TRIPOS>MOLECULE
BRD4_5NVV_E3ligase
34 36 1                 
SMALL
USER_CHARGES
@<TRIPOS>ATOM
1	  C1	12.764	49.940	80.655	C.3	1	RES1	0.000	
2	  N1	11.571	53.168	87.778	N.pl3	1	RES1	0.000	
3	  O1	12.750	51.902	89.286	O.2	1	RES1	0.000	
4	  C2	14.049	50.518	81.075	C.2	1	RES1	0.000	
5	  N2	12.950	54.117	91.065	N.pl3	1	RES1	0.000	
6	  O2	14.353	56.703	90.571	O.3	1	RES1	0.000	
7	  S2	16.003	51.647	82.275	S.2	1	RES1	0.000	
8	  C3	14.348	51.148	82.276	C.2	1	RES1	0.000	
9	  N3	11.381	54.474	94.293	N.pl3	1	RES1	0.000	
10	  O3	10.812	53.669	91.795	O.2	1	RES1	0.000	
11	  C4	13.487	51.409	83.455	C.2	1	RES1	0.000	
12	  O4	12.476	56.446	94.742	O.2	1	RES1	0.000	
13	  C5	13.514	52.620	84.137	C.2	1	RES1	0.000	
14	  O5	10.386	57.439	96.258	O.3	1	RES1	0.000	
15	  C6	12.754	52.844	85.268	C.2	1	RES1	0.000	
16	  C7	11.904	51.854	85.745	C.2	1	RES1	0.000	
17	  C8	11.087	52.069	86.985	C.3	1	RES1	0.000	
18	  C9	12.402	52.997	88.866	C.2	1	RES1	0.000	
19	  N9	15.111	50.408	80.218	N.2	1	RES1	0.000	
20	 C10	12.744	54.293	89.638	C.3	1	RES1	0.000	
21	 C11	14.075	54.813	89.100	C.3	1	RES1	0.000	
22	 C12	14.803	55.395	90.338	C.3	1	RES1	0.000	
23	 C13	14.318	54.464	91.443	C.3	1	RES1	0.000	
24	 C14	11.997	53.854	92.059	C.2	1	RES1	0.000	
25	 C15	12.447	53.808	93.523	C.3	1	RES1	0.000	
26	 C16	11.504	55.725	94.845	C.2	1	RES1	0.000	
27	 C17	10.268	56.146	95.616	C.3	1	RES1	0.000	
28	 C43	12.767	52.375	94.046	C.3	1	RES1	0.000	
29	 C44	11.535	51.471	93.990	C.3	1	RES1	0.000	
30	 C45	13.248	52.428	95.517	C.3	1	RES1	0.000	
31	 C46	13.878	51.733	93.226	C.3	1	RES1	0.000	
32	 C47	11.852	50.623	85.059	C.2	1	RES1	0.000	
33	 C48	12.635	50.393	83.957	C.2	1	RES1	0.000	
34	 C49	16.173	50.961	80.714	C.2	1	RES1	0.000	
@<TRIPOS>BOND
1 1 4 1
2 2 17 1
3 2 18 1
4 3 18 2
5 4 8 ar
6 4 19 ar
7 7 8 ar
8 7 34 ar
9 8 11 1
10 11 13 ar
11 11 33 ar
12 13 15 ar
13 15 16 ar
14 16 17 1
15 5 20 1
16 18 20 1
17 20 21 1
18 21 22 1
19 6 22 1
20 22 23 1
21 5 23 1
22 5 24 1
23 10 24 2
24 24 25 1
25 9 25 1
26 25 28 1
27 9 26 1
28 12 26 2
29 26 27 1
30 14 27 1
31 28 29 1
32 28 30 1
33 28 31 1
34 16 32 ar
35 32 33 ar
36 19 34 ar
@<TRIPOS>SUBSTRUCTURE
1	RES1	1	GROUP	1 ****	RES
