# created with PyMOL 2.5.2
@<TRIPOS>MOLECULE
BRD4_5NVV_E3ligase
34 36 1                 
SMALL
USER_CHARGES
@<TRIPOS>ATOM
1	  C1	12.665	49.854	80.760	C.3	1	RES1	0.000	
2	  N1	11.604	53.196	87.916	N.pl3	1	RES1	0.000	
3	  O1	12.897	51.976	89.378	O.2	1	RES1	0.000	
4	  C2	13.948	50.479	81.182	C.2	1	RES1	0.000	
5	  N2	13.126	54.170	91.049	N.pl3	1	RES1	0.000	
6	  O2	14.430	56.850	90.465	O.3	1	RES1	0.000	
7	  S2	15.873	51.626	82.328	S.2	1	RES1	0.000	
8	  C3	14.227	51.122	82.358	C.2	1	RES1	0.000	
9	  N3	11.343	54.435	94.181	N.pl3	1	RES1	0.000	
10	  O3	10.944	53.703	91.563	O.2	1	RES1	0.000	
11	  C4	13.402	51.408	83.546	C.2	1	RES1	0.000	
12	  O4	12.530	56.291	94.821	O.2	1	RES1	0.000	
13	  C5	12.576	50.418	84.073	C.2	1	RES1	0.000	
14	  O5	10.393	57.367	96.164	O.3	1	RES1	0.000	
15	  C6	11.823	50.642	85.204	C.2	1	RES1	0.000	
16	  C7	11.896	51.842	85.904	C.2	1	RES1	0.000	
17	  C8	11.100	52.070	87.173	C.3	1	RES1	0.000	
18	  C9	12.490	53.054	88.984	C.2	1	RES1	0.000	
19	  N9	14.969	50.393	80.253	N.2	1	RES1	0.000	
20	 C10	12.857	54.388	89.644	C.3	1	RES1	0.000	
21	 C11	14.167	54.932	89.049	C.3	1	RES1	0.000	
22	 C12	14.917	55.498	90.260	C.3	1	RES1	0.000	
23	 C13	14.475	54.585	91.403	C.3	1	RES1	0.000	
24	 C14	12.094	53.880	91.952	C.2	1	RES1	0.000	
25	 C15	12.432	53.764	93.435	C.3	1	RES1	0.000	
26	 C16	11.489	55.657	94.797	C.2	1	RES1	0.000	
27	 C17	10.207	56.124	95.478	C.3	1	RES1	0.000	
28	 C43	12.703	52.283	93.902	C.3	1	RES1	0.000	
29	 C44	11.448	51.418	93.826	C.3	1	RES1	0.000	
30	 C45	13.175	52.314	95.354	C.3	1	RES1	0.000	
31	 C46	13.811	51.669	93.023	C.3	1	RES1	0.000	
32	 C47	12.761	52.855	85.394	C.2	1	RES1	0.000	
33	 C48	13.516	52.607	84.234	C.2	1	RES1	0.000	
34	 C49	16.064	50.996	80.777	C.2	1	RES1	0.000	
@<TRIPOS>BOND
1 1 4 1
2 2 17 1
3 2 18 1
4 3 18 2
5 4 8 ar
6 4 19 ar
7 7 8 ar
8 7 34 ar
9 8 11 1
10 11 13 ar
11 11 33 ar
12 13 15 ar
13 15 16 ar
14 16 17 1
15 5 20 1
16 18 20 1
17 20 21 1
18 21 22 1
19 6 22 1
20 22 23 1
21 5 23 1
22 5 24 1
23 10 24 2
24 24 25 1
25 9 25 1
26 25 28 1
27 9 26 1
28 12 26 2
29 26 27 1
30 14 27 1
31 28 29 1
32 28 30 1
33 28 31 1
34 16 32 ar
35 32 33 ar
36 19 34 ar
@<TRIPOS>SUBSTRUCTURE
1	RES1	1	GROUP	1 ****	RES
