# created with PyMOL 2.5.2
@<TRIPOS>MOLECULE
CRBN_6H0G_E3ligase
20 22 1                 
SMALL
USER_CHARGES
@<TRIPOS>ATOM
1	  C1	3.388	50.707	-78.371	C.2	1	RES1	0.000	
2	  N1	1.689	51.049	-82.320	N.2	1	RES1	0.000	
3	  O1	3.858	50.738	-77.222	O.2	1	RES1	0.000	
4	  C2	4.005	49.893	-79.480	C.3	1	RES1	0.000	
5	  N2	1.666	54.701	-84.755	N.pl3	1	RES1	0.000	
6	  O2	0.689	49.080	-83.142	O.2	1	RES1	0.000	
7	  C3	3.665	50.463	-80.856	C.3	1	RES1	0.000	
8	  C4	2.123	50.541	-81.002	C.3	1	RES1	0.000	
9	  C5	1.028	50.273	-83.218	C.2	1	RES1	0.000	
10	  C6	0.724	51.116	-84.350	C.2	1	RES1	0.000	
11	  N6	2.217	51.378	-78.670	N.pl3	1	RES1	0.000	
12	  C7	0.073	50.816	-85.560	C.2	1	RES1	0.000	
13	  C8	-0.027	51.855	-86.476	C.2	1	RES1	0.000	
14	  C9	0.480	53.131	-86.213	C.2	1	RES1	0.000	
15	  O9	2.327	53.326	-82.221	O.2	1	RES1	0.000	
16	 C10	1.095	53.423	-85.015	C.2	1	RES1	0.000	
17	 O10	0.497	52.002	-79.985	O.2	1	RES1	0.000	
18	 C32	1.239	52.361	-84.101	C.2	1	RES1	0.000	
19	 C33	1.844	52.340	-82.757	C.2	1	RES1	0.000	
20	 C34	1.545	51.399	-79.854	C.2	1	RES1	0.000	
@<TRIPOS>BOND
1 1 3 2
2 1 4 1
3 1 11 1
4 2 8 1
5 2 9 ar
6 2 19 ar
7 4 7 1
8 6 9 2
9 7 8 1
10 9 10 ar
11 10 12 ar
12 12 13 ar
13 13 14 ar
14 5 16 1
15 14 16 ar
16 16 18 ar
17 17 20 2
18 10 18 ar
19 18 19 ar
20 15 19 2
21 8 20 1
22 11 20 1
@<TRIPOS>SUBSTRUCTURE
1	RES1	1	GROUP	1 ****	RES
