# created with PyMOL 2.5.2
@<TRIPOS>MOLECULE
BRD4_4W9K_E3ligase
44 47 1                 
SMALL
USER_CHARGES
@<TRIPOS>ATOM
1	  C1	12.563	50.442	80.353	C.3	1	RES1	0.000	
2	  N1	11.387	53.576	87.473	N.pl3	1	RES1	0.000	
3	  O1	12.755	52.292	88.795	O.2	1	RES1	0.000	
4	  C2	13.865	51.062	80.731	C.2	1	RES1	0.000	
5	  N2	13.078	54.529	90.552	N.pl3	1	RES1	0.000	
6	  O2	14.353	57.169	89.808	O.3	1	RES1	0.000	
7	  S2	15.785	52.255	81.879	S.2	1	RES1	0.000	
8	  C3	14.158	51.641	81.950	C.2	1	RES1	0.000	
9	  N3	11.344	54.504	93.768	N.pl3	1	RES1	0.000	
10	  O3	10.941	54.033	91.190	O.2	1	RES1	0.000	
11	  C4	13.358	51.856	83.167	C.2	1	RES1	0.000	
12	  N4	9.669	54.916	96.095	N.pl3	1	RES1	0.000	
13	  O4	12.128	56.576	94.444	O.2	1	RES1	0.000	
14	  C5	13.437	53.049	83.891	C.2	1	RES1	0.000	
15	  O5	7.868	53.912	95.069	O.2	1	RES1	0.000	
16	  C6	12.650	53.221	85.029	C.2	1	RES1	0.000	
17	  C7	11.750	52.244	85.464	C.2	1	RES1	0.000	
18	  C8	10.899	52.457	86.683	C.3	1	RES1	0.000	
19	  C9	12.285	53.404	88.492	C.2	1	RES1	0.000	
20	 C10	12.733	54.691	89.166	C.3	1	RES1	0.000	
21	 N10	14.856	51.032	79.815	N.2	1	RES1	0.000	
22	 C11	14.005	55.176	88.508	C.3	1	RES1	0.000	
23	 C12	14.786	55.841	89.624	C.3	1	RES1	0.000	
24	 C13	14.416	54.963	90.828	C.3	1	RES1	0.000	
25	 C14	12.078	54.202	91.532	C.2	1	RES1	0.000	
26	 C15	12.525	54.111	92.995	C.3	1	RES1	0.000	
27	 C16	11.248	55.726	94.426	C.2	1	RES1	0.000	
28	 C17	9.885	55.968	95.093	C.3	1	RES1	0.000	
29	 C18	9.832	57.360	95.713	C.3	1	RES1	0.000	
30	 C19	8.511	57.711	96.390	C.2	1	RES1	0.000	
31	 C20	7.370	57.970	95.607	C.2	1	RES1	0.000	
32	 C21	6.197	58.327	96.188	C.2	1	RES1	0.000	
33	 C22	6.116	58.438	97.607	C.2	1	RES1	0.000	
34	 C23	7.236	58.183	98.375	C.2	1	RES1	0.000	
35	 C24	8.456	57.814	97.761	C.2	1	RES1	0.000	
36	 C25	8.682	53.981	95.997	C.2	1	RES1	0.000	
37	 C26	8.620	53.019	97.151	C.3	1	RES1	0.000	
38	 C52	13.075	52.685	93.386	C.3	1	RES1	0.000	
39	 C53	11.912	51.663	93.347	C.3	1	RES1	0.000	
40	 C54	13.613	52.731	94.840	C.3	1	RES1	0.000	
41	 C55	14.177	52.182	92.454	C.3	1	RES1	0.000	
42	 C56	11.672	51.075	84.710	C.2	1	RES1	0.000	
43	 C57	12.460	50.865	83.599	C.2	1	RES1	0.000	
44	 C58	15.932	51.633	80.297	C.2	1	RES1	0.000	
@<TRIPOS>BOND
1 1 4 1
2 2 18 1
3 2 19 1
4 3 19 2
5 4 8 ar
6 7 8 ar
7 7 44 ar
8 8 11 1
9 11 14 ar
10 11 43 ar
11 14 16 ar
12 16 17 ar
13 17 18 1
14 5 20 1
15 19 20 1
16 20 22 1
17 4 21 ar
18 21 44 ar
19 22 23 1
20 6 23 1
21 23 24 1
22 5 24 1
23 5 25 1
24 10 25 2
25 25 26 1
26 9 26 1
27 26 38 1
28 9 27 1
29 13 27 2
30 27 28 1
31 12 28 1
32 28 29 1
33 29 30 1
34 30 31 ar
35 30 35 ar
36 31 32 ar
37 32 33 ar
38 33 34 ar
39 34 35 ar
40 12 36 1
41 15 36 2
42 36 37 1
43 38 39 1
44 38 40 1
45 38 41 1
46 17 42 ar
47 42 43 ar
@<TRIPOS>SUBSTRUCTURE
1	RES1	1	GROUP	1 ****	RES
