# created with PyMOL 2.5.2
@<TRIPOS>MOLECULE
CDK6_4W9H_E3ligase
33 35 1                 
SMALL
USER_CHARGES
@<TRIPOS>ATOM
1	  S1	15.555	51.463	82.102	S.2	1	RES1	0.000	
2	  O4	12.328	56.359	94.679	O.2	1	RES1	0.000	
3	  O5	10.447	53.731	91.506	O.2	1	RES1	0.000	
4	  O6	14.242	56.514	90.256	O.3	1	RES1	0.000	
5	  N7	11.062	54.560	94.048	N.pl3	1	RES1	0.000	
6	  O7	12.307	51.802	89.183	O.2	1	RES1	0.000	
7	  N8	12.605	54.075	90.852	N.pl3	1	RES1	0.000	
8	  N9	11.158	53.081	87.623	N.pl3	1	RES1	0.000	
9	 N10	14.592	50.411	80.010	N.2	1	RES1	0.000	
10	 C24	10.026	56.331	95.323	C.3	1	RES1	0.000	
11	 C25	11.266	55.776	94.673	C.2	1	RES1	0.000	
12	 C26	12.066	53.843	93.300	C.3	1	RES1	0.000	
13	 C27	11.641	53.876	91.829	C.2	1	RES1	0.000	
14	 C28	14.005	54.330	91.188	C.3	1	RES1	0.000	
15	 C29	14.546	55.147	90.027	C.3	1	RES1	0.000	
16	 C30	13.761	54.629	88.850	C.3	1	RES1	0.000	
17	 C31	12.417	54.220	89.405	C.3	1	RES1	0.000	
18	 C32	11.966	52.898	88.770	C.2	1	RES1	0.000	
19	 C33	10.671	51.923	86.906	C.3	1	RES1	0.000	
20	 C34	11.532	51.687	85.668	C.2	1	RES1	0.000	
21	 C35	12.353	52.703	85.176	C.2	1	RES1	0.000	
22	 C36	13.113	52.471	84.039	C.2	1	RES1	0.000	
23	 C37	13.075	51.227	83.323	C.2	1	RES1	0.000	
24	 C38	13.893	51.011	82.160	C.2	1	RES1	0.000	
25	 C39	13.562	50.449	80.917	C.2	1	RES1	0.000	
26	 C40	12.275	49.862	80.503	C.3	1	RES1	0.000	
27	 C41	15.670	50.907	80.495	C.2	1	RES1	0.000	
28	 C42	12.220	50.256	83.848	C.2	1	RES1	0.000	
29	 C43	11.456	50.464	84.992	C.2	1	RES1	0.000	
30	 C44	12.317	52.367	93.845	C.3	1	RES1	0.000	
31	 C45	13.378	51.654	93.007	C.3	1	RES1	0.000	
32	 C46	12.829	52.450	95.299	C.3	1	RES1	0.000	
33	 C47	11.039	51.535	93.834	C.3	1	RES1	0.000	
@<TRIPOS>BOND
1 1 24 ar
2 1 27 ar
3 9 25 ar
4 9 27 ar
5 10 11 1
6 2 11 2
7 5 11 1
8 5 12 1
9 12 13 1
10 12 30 1
11 3 13 2
12 7 13 1
13 7 14 1
14 14 15 1
15 4 15 1
16 15 16 1
17 16 17 1
18 7 17 1
19 17 18 1
20 6 18 2
21 8 18 1
22 8 19 1
23 19 20 1
24 20 21 ar
25 20 29 ar
26 21 22 ar
27 22 23 ar
28 23 24 1
29 23 28 ar
30 24 25 ar
31 25 26 1
32 28 29 ar
33 30 31 1
34 30 32 1
35 30 33 1
@<TRIPOS>SUBSTRUCTURE
1	RES1	1	GROUP	1 ****	RES
