# created with PyMOL 2.5.2
@<TRIPOS>MOLECULE
CDK6_4W9H_E3ligase
33 35 1                 
SMALL
USER_CHARGES
@<TRIPOS>ATOM
1	  S1	15.509	51.403	82.118	S.2	1	RES1	0.000	
2	  O5	12.283	56.285	94.716	O.2	1	RES1	0.000	
3	  O6	10.573	53.722	91.364	O.2	1	RES1	0.000	
4	  N7	10.973	54.530	93.986	N.pl3	1	RES1	0.000	
5	  O7	14.227	56.673	90.349	O.3	1	RES1	0.000	
6	  N8	12.761	54.100	90.844	N.pl3	1	RES1	0.000	
7	  O8	12.463	51.868	89.233	O.2	1	RES1	0.000	
8	  N9	11.252	53.081	87.733	N.pl3	1	RES1	0.000	
9	 N10	14.489	50.406	79.968	N.2	1	RES1	0.000	
10	 C26	9.945	56.281	95.242	C.3	1	RES1	0.000	
11	 C27	11.184	55.722	94.631	C.2	1	RES1	0.000	
12	 C28	12.060	53.790	93.275	C.3	1	RES1	0.000	
13	 C29	11.709	53.881	91.760	C.2	1	RES1	0.000	
14	 C30	14.135	54.391	91.174	C.3	1	RES1	0.000	
15	 C31	14.572	55.318	90.052	C.3	1	RES1	0.000	
16	 C32	13.815	54.831	88.843	C.3	1	RES1	0.000	
17	 C33	12.470	54.313	89.433	C.3	1	RES1	0.000	
18	 C34	12.089	52.970	88.793	C.2	1	RES1	0.000	
19	 C35	10.748	51.914	86.982	C.3	1	RES1	0.000	
20	 C36	11.538	51.659	85.736	C.2	1	RES1	0.000	
21	 C37	11.488	50.396	85.069	C.2	1	RES1	0.000	
22	 C38	12.222	50.194	83.913	C.2	1	RES1	0.000	
23	 C39	13.067	51.177	83.384	C.2	1	RES1	0.000	
24	 C40	13.838	50.978	82.152	C.2	1	RES1	0.000	
25	 C41	13.497	50.446	80.941	C.2	1	RES1	0.000	
26	 C42	12.172	49.900	80.521	C.3	1	RES1	0.000	
27	 C43	15.617	50.931	80.498	C.2	1	RES1	0.000	
28	 C44	13.126	52.422	84.051	C.2	1	RES1	0.000	
29	 C45	12.363	52.658	85.200	C.2	1	RES1	0.000	
30	 C46	12.265	52.326	93.775	C.3	1	RES1	0.000	
31	 C47	12.643	52.338	95.262	C.3	1	RES1	0.000	
32	 C48	13.347	51.551	92.998	C.3	1	RES1	0.000	
33	 C49	10.933	51.554	93.638	C.3	1	RES1	0.000	
@<TRIPOS>BOND
1 1 24 ar
2 1 27 ar
3 9 25 ar
4 9 27 ar
5 10 11 1
6 2 11 2
7 4 11 1
8 4 12 1
9 12 13 1
10 12 30 1
11 3 13 2
12 6 13 1
13 6 14 1
14 14 15 1
15 5 15 1
16 15 16 1
17 16 17 1
18 6 17 1
19 17 18 1
20 7 18 2
21 8 18 1
22 8 19 1
23 19 20 1
24 20 21 ar
25 20 29 ar
26 21 22 ar
27 22 23 ar
28 23 24 1
29 23 28 ar
30 24 25 ar
31 25 26 1
32 28 29 ar
33 30 31 1
34 30 32 1
35 30 33 1
@<TRIPOS>SUBSTRUCTURE
1	RES1	1	GROUP	1 ****	RES
