# created with PyMOL 2.5.2
@<TRIPOS>MOLECULE
CDK6_4W9H_E3ligase
33 35 1                 
SMALL
USER_CHARGES
@<TRIPOS>ATOM
1	  S1	15.524	51.708	82.149	S.2	1	RES1	0.000	
2	  O6	12.477	56.380	94.666	O.2	1	RES1	0.000	
3	  N7	11.103	54.621	94.130	N.pl3	1	RES1	0.000	
4	  O7	10.335	53.854	91.611	O.2	1	RES1	0.000	
5	  N8	12.461	54.175	90.848	N.pl3	1	RES1	0.000	
6	  O8	15.449	55.658	89.502	O.3	1	RES1	0.000	
7	  N9	11.015	52.808	87.758	N.pl3	1	RES1	0.000	
8	  O9	12.481	51.881	89.251	O.2	1	RES1	0.000	
9	 N10	14.571	50.637	80.013	N.2	1	RES1	0.000	
10	 C28	10.240	56.438	95.466	C.3	1	RES1	0.000	
11	 C29	11.404	55.838	94.717	C.2	1	RES1	0.000	
12	 C30	12.059	53.902	93.315	C.3	1	RES1	0.000	
13	 C31	11.543	53.956	91.857	C.2	1	RES1	0.000	
14	 C32	13.888	54.489	90.996	C.3	1	RES1	0.000	
15	 C33	14.428	54.640	89.594	C.3	1	RES1	0.000	
16	 C34	13.188	55.051	88.808	C.3	1	RES1	0.000	
17	 C35	12.068	54.263	89.441	C.3	1	RES1	0.000	
18	 C36	11.905	52.871	88.829	C.2	1	RES1	0.000	
19	 C37	10.707	51.596	87.030	C.3	1	RES1	0.000	
20	 C38	11.533	51.476	85.772	C.2	1	RES1	0.000	
21	 C39	12.224	52.575	85.302	C.2	1	RES1	0.000	
22	 C40	13.011	52.481	84.120	C.2	1	RES1	0.000	
23	 C41	13.098	51.265	83.421	C.2	1	RES1	0.000	
24	 C42	13.885	51.149	82.186	C.2	1	RES1	0.000	
25	 C43	13.572	50.591	80.954	C.2	1	RES1	0.000	
26	 C44	12.293	49.959	80.558	C.3	1	RES1	0.000	
27	 C45	15.628	51.203	80.507	C.2	1	RES1	0.000	
28	 C46	12.374	50.163	83.919	C.2	1	RES1	0.000	
29	 C47	11.624	50.263	85.100	C.2	1	RES1	0.000	
30	 C48	12.277	52.412	93.816	C.3	1	RES1	0.000	
31	 C49	13.146	51.584	92.855	C.3	1	RES1	0.000	
32	 C50	12.937	52.402	95.199	C.3	1	RES1	0.000	
33	 C51	10.921	51.723	93.944	C.3	1	RES1	0.000	
@<TRIPOS>BOND
1 1 24 ar
2 1 27 ar
3 9 25 ar
4 9 27 ar
5 10 11 1
6 2 11 2
7 3 11 1
8 3 12 1
9 12 13 1
10 12 30 1
11 4 13 2
12 5 13 1
13 5 14 1
14 14 15 1
15 6 15 1
16 15 16 1
17 16 17 1
18 5 17 1
19 17 18 1
20 7 18 1
21 8 18 2
22 7 19 1
23 19 20 1
24 20 21 ar
25 20 29 ar
26 21 22 ar
27 22 23 ar
28 23 24 1
29 23 28 ar
30 24 25 ar
31 25 26 1
32 28 29 ar
33 30 31 1
34 30 32 1
35 30 33 1
@<TRIPOS>SUBSTRUCTURE
1	RES1	1	GROUP	1 ****	RES
