# created with PyMOL 2.5.2
@<TRIPOS>MOLECULE
CDK6_4W9H_E3ligase
33 35 1                 
SMALL
USER_CHARGES
@<TRIPOS>ATOM
1	  S1	15.538	51.422	82.095	S.2	1	RES1	0.000	
2	  N7	10.987	54.509	93.984	N.pl3	1	RES1	0.000	
3	  O7	12.293	56.280	94.696	O.2	1	RES1	0.000	
4	  N8	12.735	54.077	90.849	N.pl3	1	RES1	0.000	
5	  O8	10.546	53.683	91.374	O.2	1	RES1	0.000	
6	  N9	11.194	53.065	87.690	N.pl3	1	RES1	0.000	
7	  O9	14.248	56.637	90.303	O.3	1	RES1	0.000	
8	 N10	14.504	50.399	79.982	N.2	1	RES1	0.000	
9	 O10	12.353	51.854	89.270	O.2	1	RES1	0.000	
10	 C30	9.961	56.323	95.258	C.3	1	RES1	0.000	
11	 C31	11.215	55.728	94.634	C.2	1	RES1	0.000	
12	 C32	12.034	53.799	93.272	C.3	1	RES1	0.000	
13	 C33	11.699	53.860	91.794	C.2	1	RES1	0.000	
14	 C34	14.120	54.338	91.128	C.3	1	RES1	0.000	
15	 C35	14.573	55.266	90.026	C.3	1	RES1	0.000	
16	 C36	13.759	54.763	88.831	C.3	1	RES1	0.000	
17	 C37	12.458	54.242	89.426	C.3	1	RES1	0.000	
18	 C38	12.057	52.906	88.782	C.2	1	RES1	0.000	
19	 C39	10.716	51.926	86.939	C.3	1	RES1	0.000	
20	 C40	11.514	51.700	85.679	C.2	1	RES1	0.000	
21	 C41	11.468	50.450	85.020	C.2	1	RES1	0.000	
22	 C42	12.230	50.239	83.890	C.2	1	RES1	0.000	
23	 C43	13.118	51.226	83.371	C.2	1	RES1	0.000	
24	 C44	13.894	50.999	82.168	C.2	1	RES1	0.000	
25	 C45	13.516	50.451	80.961	C.2	1	RES1	0.000	
26	 C46	12.188	49.915	80.540	C.3	1	RES1	0.000	
27	 C47	15.624	50.891	80.494	C.2	1	RES1	0.000	
28	 C48	13.143	52.453	84.059	C.2	1	RES1	0.000	
29	 C49	12.364	52.678	85.210	C.2	1	RES1	0.000	
30	 C50	12.271	52.354	93.818	C.3	1	RES1	0.000	
31	 C51	12.716	52.423	95.305	C.3	1	RES1	0.000	
32	 C52	13.359	51.632	93.018	C.3	1	RES1	0.000	
33	 C53	10.976	51.522	93.761	C.3	1	RES1	0.000	
@<TRIPOS>BOND
1 1 24 ar
2 1 27 ar
3 8 25 ar
4 8 27 ar
5 9 18 2
6 10 11 1
7 2 11 1
8 3 11 2
9 2 12 1
10 12 13 1
11 12 30 1
12 4 13 1
13 5 13 2
14 4 14 1
15 14 15 1
16 7 15 1
17 15 16 1
18 16 17 1
19 4 17 1
20 17 18 1
21 6 18 1
22 6 19 1
23 19 20 1
24 20 21 ar
25 20 29 ar
26 21 22 ar
27 22 23 ar
28 23 24 1
29 23 28 ar
30 24 25 ar
31 25 26 1
32 28 29 ar
33 30 31 1
34 30 32 1
35 30 33 1
@<TRIPOS>SUBSTRUCTURE
1	RES1	1	GROUP	1 ****	RES
