# created with PyMOL 2.5.2
@<TRIPOS>MOLECULE
ALK_4W9H_E3ligase
33 35 1                 
SMALL
USER_CHARGES
@<TRIPOS>ATOM
1	  S1	15.492	51.573	82.132	S.2	1	RES1	0.000	
2	  O3	12.333	56.338	94.696	O.2	1	RES1	0.000	
3	  N4	11.013	54.564	94.001	N.pl3	1	RES1	0.000	
4	  O4	10.523	53.738	91.416	O.2	1	RES1	0.000	
5	  N5	12.742	54.060	90.856	N.pl3	1	RES1	0.000	
6	  O5	14.243	56.580	90.248	O.3	1	RES1	0.000	
7	  N6	11.178	52.998	87.736	N.pl3	1	RES1	0.000	
8	  O6	12.340	51.758	89.276	O.2	1	RES1	0.000	
9	  N7	14.579	50.421	80.003	N.2	1	RES1	0.000	
10	 C12	9.997	56.362	95.238	C.3	1	RES1	0.000	
11	 C13	11.245	55.786	94.630	C.2	1	RES1	0.000	
12	 C14	12.069	53.833	93.281	C.3	1	RES1	0.000	
13	 C15	11.691	53.867	91.758	C.2	1	RES1	0.000	
14	 C16	14.130	54.324	91.141	C.3	1	RES1	0.000	
15	 C17	14.565	55.205	89.993	C.3	1	RES1	0.000	
16	 C18	13.783	54.683	88.819	C.3	1	RES1	0.000	
17	 C19	12.441	54.190	89.435	C.3	1	RES1	0.000	
18	 C20	12.041	52.840	88.815	C.2	1	RES1	0.000	
19	 C21	10.700	51.859	86.963	C.3	1	RES1	0.000	
20	 C22	11.512	51.642	85.711	C.2	1	RES1	0.000	
21	 C23	12.335	52.652	85.210	C.2	1	RES1	0.000	
22	 C24	13.103	52.459	84.028	C.2	1	RES1	0.000	
23	 C25	13.037	51.229	83.349	C.2	1	RES1	0.000	
24	 C26	13.850	51.029	82.140	C.2	1	RES1	0.000	
25	 C27	13.549	50.486	80.903	C.2	1	RES1	0.000	
26	 C28	12.260	49.937	80.459	C.3	1	RES1	0.000	
27	 C29	15.666	50.979	80.543	C.2	1	RES1	0.000	
28	 C30	12.232	50.209	83.894	C.2	1	RES1	0.000	
29	 C31	11.480	50.405	85.060	C.2	1	RES1	0.000	
30	 C32	12.265	52.391	93.823	C.3	1	RES1	0.000	
31	 C33	13.341	51.591	93.057	C.3	1	RES1	0.000	
32	 C34	12.703	52.408	95.288	C.3	1	RES1	0.000	
33	 C35	10.931	51.616	93.734	C.3	1	RES1	0.000	
@<TRIPOS>BOND
1 1 24 ar
2 1 27 ar
3 10 11 1
4 2 11 2
5 3 11 1
6 3 12 1
7 12 13 1
8 12 30 1
9 4 13 2
10 5 13 1
11 5 14 1
12 14 15 1
13 6 15 1
14 15 16 1
15 16 17 1
16 5 17 1
17 17 18 1
18 7 18 1
19 8 18 2
20 7 19 1
21 19 20 1
22 20 21 ar
23 20 29 ar
24 21 22 ar
25 22 23 ar
26 23 24 1
27 23 28 ar
28 24 25 ar
29 9 25 ar
30 25 26 1
31 9 27 ar
32 28 29 ar
33 30 31 1
34 30 32 1
35 30 33 1
@<TRIPOS>SUBSTRUCTURE
1	RES1	1	GROUP	1 ****	RES
