# created with PyMOL 2.5.2
@<TRIPOS>MOLECULE
ALK_4W9H_E3ligase
33 35 1                 
SMALL
USER_CHARGES
@<TRIPOS>ATOM
1	  S1	15.489	51.380	82.130	S.2	1	RES1	0.000	
2	  O3	12.403	56.275	94.702	O.2	1	RES1	0.000	
3	  N4	11.092	54.486	94.007	N.pl3	1	RES1	0.000	
4	  O4	10.634	53.663	91.421	O.2	1	RES1	0.000	
5	  N5	12.795	54.110	90.893	N.pl3	1	RES1	0.000	
6	  O5	14.102	56.750	90.148	O.3	1	RES1	0.000	
7	  N6	11.243	53.121	87.694	N.pl3	1	RES1	0.000	
8	  O6	12.294	51.860	89.254	O.2	1	RES1	0.000	
9	  N7	14.512	50.306	80.034	N.2	1	RES1	0.000	
10	 C13	10.075	56.310	95.233	C.3	1	RES1	0.000	
11	 C14	11.301	55.687	94.637	C.2	1	RES1	0.000	
12	 C15	12.132	53.735	93.325	C.3	1	RES1	0.000	
13	 C16	11.766	53.823	91.812	C.2	1	RES1	0.000	
14	 C17	14.130	54.561	91.183	C.3	1	RES1	0.000	
15	 C18	14.551	55.382	89.987	C.3	1	RES1	0.000	
16	 C19	13.801	54.738	88.835	C.3	1	RES1	0.000	
17	 C20	12.497	54.242	89.453	C.3	1	RES1	0.000	
18	 C21	12.066	52.953	88.765	C.2	1	RES1	0.000	
19	 C22	10.685	52.006	86.939	C.3	1	RES1	0.000	
20	 C23	11.474	51.751	85.657	C.2	1	RES1	0.000	
21	 C24	11.371	50.516	84.979	C.2	1	RES1	0.000	
22	 C25	12.119	50.286	83.840	C.2	1	RES1	0.000	
23	 C26	12.994	51.258	83.354	C.2	1	RES1	0.000	
24	 C27	13.823	50.976	82.151	C.2	1	RES1	0.000	
25	 C28	13.492	50.384	80.937	C.2	1	RES1	0.000	
26	 C29	12.170	49.850	80.535	C.3	1	RES1	0.000	
27	 C30	15.614	50.792	80.533	C.2	1	RES1	0.000	
28	 C31	13.134	52.463	84.036	C.2	1	RES1	0.000	
29	 C32	12.370	52.707	85.186	C.2	1	RES1	0.000	
30	 C33	12.281	52.299	93.842	C.3	1	RES1	0.000	
31	 C34	12.783	52.295	95.294	C.3	1	RES1	0.000	
32	 C35	13.245	51.439	92.996	C.3	1	RES1	0.000	
33	 C36	10.930	51.596	93.825	C.3	1	RES1	0.000	
@<TRIPOS>BOND
1 1 24 ar
2 1 27 ar
3 10 11 1
4 2 11 2
5 3 11 1
6 3 12 1
7 12 13 1
8 12 30 1
9 4 13 2
10 5 13 1
11 5 14 1
12 14 15 1
13 6 15 1
14 15 16 1
15 16 17 1
16 5 17 1
17 17 18 1
18 7 18 1
19 8 18 2
20 7 19 1
21 19 20 1
22 20 21 ar
23 20 29 ar
24 21 22 ar
25 22 23 ar
26 23 24 1
27 23 28 ar
28 24 25 ar
29 9 25 ar
30 25 26 1
31 9 27 ar
32 28 29 ar
33 30 31 1
34 30 32 1
35 30 33 1
@<TRIPOS>SUBSTRUCTURE
1	RES1	1	GROUP	1 ****	RES
