# created with PyMOL 2.5.2
@<TRIPOS>MOLECULE
ALK_4W9H_E3ligase
33 35 1                 
SMALL
USER_CHARGES
@<TRIPOS>ATOM
1	  S1	15.499	51.450	82.106	S.2	1	RES1	0.000	
2	  O3	12.434	56.231	94.725	O.2	1	RES1	0.000	
3	  N4	11.077	54.511	94.035	N.pl3	1	RES1	0.000	
4	  O4	10.622	53.651	91.422	O.2	1	RES1	0.000	
5	  N5	12.799	54.105	90.897	N.pl3	1	RES1	0.000	
6	  O5	14.100	56.756	90.167	O.3	1	RES1	0.000	
7	  N6	11.209	53.115	87.655	N.pl3	1	RES1	0.000	
8	  O6	12.333	51.870	89.205	O.2	1	RES1	0.000	
9	  N7	14.537	50.257	80.037	N.2	1	RES1	0.000	
10	 C14	10.096	56.317	95.254	C.3	1	RES1	0.000	
11	 C15	11.341	55.705	94.656	C.2	1	RES1	0.000	
12	 C16	12.139	53.735	93.331	C.3	1	RES1	0.000	
13	 C17	11.777	53.834	91.817	C.2	1	RES1	0.000	
14	 C18	14.146	54.553	91.187	C.3	1	RES1	0.000	
15	 C19	14.550	55.394	89.994	C.3	1	RES1	0.000	
16	 C20	13.808	54.741	88.838	C.3	1	RES1	0.000	
17	 C21	12.487	54.248	89.437	C.3	1	RES1	0.000	
18	 C22	12.063	52.952	88.747	C.2	1	RES1	0.000	
19	 C23	10.675	52.007	86.907	C.3	1	RES1	0.000	
20	 C24	11.461	51.772	85.644	C.2	1	RES1	0.000	
21	 C25	12.307	52.745	85.121	C.2	1	RES1	0.000	
22	 C26	13.067	52.472	83.996	C.2	1	RES1	0.000	
23	 C27	13.013	51.227	83.335	C.2	1	RES1	0.000	
24	 C28	13.835	50.956	82.157	C.2	1	RES1	0.000	
25	 C29	13.513	50.366	80.929	C.2	1	RES1	0.000	
26	 C30	12.188	49.839	80.518	C.3	1	RES1	0.000	
27	 C31	15.618	50.791	80.535	C.2	1	RES1	0.000	
28	 C32	12.132	50.272	83.867	C.2	1	RES1	0.000	
29	 C33	11.379	50.529	84.999	C.2	1	RES1	0.000	
30	 C34	12.271	52.293	93.861	C.3	1	RES1	0.000	
31	 C35	13.248	51.417	93.071	C.3	1	RES1	0.000	
32	 C36	12.738	52.294	95.338	C.3	1	RES1	0.000	
33	 C37	10.911	51.606	93.849	C.3	1	RES1	0.000	
@<TRIPOS>BOND
1 1 24 ar
2 1 27 ar
3 10 11 1
4 2 11 2
5 3 11 1
6 3 12 1
7 12 13 1
8 12 30 1
9 4 13 2
10 5 13 1
11 5 14 1
12 14 15 1
13 6 15 1
14 15 16 1
15 16 17 1
16 5 17 1
17 17 18 1
18 7 18 1
19 8 18 2
20 7 19 1
21 19 20 1
22 20 21 ar
23 20 29 ar
24 21 22 ar
25 22 23 ar
26 23 24 1
27 23 28 ar
28 24 25 ar
29 9 25 ar
30 25 26 1
31 9 27 ar
32 28 29 ar
33 30 31 1
34 30 32 1
35 30 33 1
@<TRIPOS>SUBSTRUCTURE
1	RES1	1	GROUP	1 ****	RES
