# created with PyMOL 2.5.2
@<TRIPOS>MOLECULE
ALK_4W9H_E3ligase
33 35 1                 
SMALL
USER_CHARGES
@<TRIPOS>ATOM
1	  S1	15.511	51.368	82.117	S.2	1	RES1	0.000	
2	  O3	12.412	56.253	94.680	O.2	1	RES1	0.000	
3	  N4	11.086	54.503	94.003	N.pl3	1	RES1	0.000	
4	  O4	10.641	53.627	91.429	O.2	1	RES1	0.000	
5	  N5	12.798	54.103	90.884	N.pl3	1	RES1	0.000	
6	  O5	14.078	56.770	90.127	O.3	1	RES1	0.000	
7	  N6	11.226	53.126	87.690	N.pl3	1	RES1	0.000	
8	  O6	12.368	51.846	89.228	O.2	1	RES1	0.000	
9	  N7	14.501	50.257	80.039	N.2	1	RES1	0.000	
10	 C15	10.086	56.328	95.232	C.3	1	RES1	0.000	
11	 C16	11.332	55.707	94.635	C.2	1	RES1	0.000	
12	 C17	12.126	53.733	93.333	C.3	1	RES1	0.000	
13	 C18	11.762	53.835	91.803	C.2	1	RES1	0.000	
14	 C19	14.151	54.548	91.193	C.3	1	RES1	0.000	
15	 C20	14.536	55.412	89.996	C.3	1	RES1	0.000	
16	 C21	13.798	54.765	88.840	C.3	1	RES1	0.000	
17	 C22	12.483	54.248	89.461	C.3	1	RES1	0.000	
18	 C23	12.069	52.949	88.760	C.2	1	RES1	0.000	
19	 C24	10.695	51.989	86.921	C.3	1	RES1	0.000	
20	 C25	11.473	51.770	85.673	C.2	1	RES1	0.000	
21	 C26	11.393	50.547	85.008	C.2	1	RES1	0.000	
22	 C27	12.167	50.313	83.856	C.2	1	RES1	0.000	
23	 C28	13.018	51.289	83.337	C.2	1	RES1	0.000	
24	 C29	13.824	50.997	82.132	C.2	1	RES1	0.000	
25	 C30	13.461	50.386	80.969	C.2	1	RES1	0.000	
26	 C31	12.140	49.837	80.540	C.3	1	RES1	0.000	
27	 C32	15.609	50.752	80.536	C.2	1	RES1	0.000	
28	 C33	13.117	52.476	84.008	C.2	1	RES1	0.000	
29	 C34	12.354	52.746	85.169	C.2	1	RES1	0.000	
30	 C35	12.264	52.279	93.863	C.3	1	RES1	0.000	
31	 C36	12.772	52.283	95.306	C.3	1	RES1	0.000	
32	 C37	13.227	51.389	93.009	C.3	1	RES1	0.000	
33	 C38	10.892	51.574	93.843	C.3	1	RES1	0.000	
@<TRIPOS>BOND
1 1 24 ar
2 1 27 ar
3 10 11 1
4 2 11 2
5 3 11 1
6 3 12 1
7 12 13 1
8 12 30 1
9 4 13 2
10 5 13 1
11 5 14 1
12 14 15 1
13 6 15 1
14 15 16 1
15 16 17 1
16 5 17 1
17 17 18 1
18 7 18 1
19 8 18 2
20 7 19 1
21 19 20 1
22 20 21 ar
23 20 29 ar
24 21 22 ar
25 22 23 ar
26 23 24 1
27 23 28 ar
28 24 25 ar
29 9 25 ar
30 25 26 1
31 9 27 ar
32 28 29 ar
33 30 31 1
34 30 32 1
35 30 33 1
@<TRIPOS>SUBSTRUCTURE
1	RES1	1	GROUP	1 ****	RES
