# created with PyMOL 2.5.2
@<TRIPOS>MOLECULE
ALK_4W9H_E3ligase
33 35 1                 
SMALL
USER_CHARGES
@<TRIPOS>ATOM
1	  S1	15.473	51.825	82.268	S.2	1	RES1	0.000	
2	  O3	12.455	56.421	94.626	O.2	1	RES1	0.000	
3	  N4	11.097	54.629	94.059	N.pl3	1	RES1	0.000	
4	  O4	10.402	53.786	91.588	O.2	1	RES1	0.000	
5	  N5	12.539	54.125	90.816	N.pl3	1	RES1	0.000	
6	  O5	15.495	55.565	89.379	O.3	1	RES1	0.000	
7	  N6	10.950	52.786	87.769	N.pl3	1	RES1	0.000	
8	  O6	12.350	51.769	89.320	O.2	1	RES1	0.000	
9	  N7	14.672	50.683	80.103	N.2	1	RES1	0.000	
10	 C16	10.201	56.481	95.336	C.3	1	RES1	0.000	
11	 C17	11.393	55.858	94.653	C.2	1	RES1	0.000	
12	 C18	12.086	53.874	93.278	C.3	1	RES1	0.000	
13	 C19	11.591	53.920	91.832	C.2	1	RES1	0.000	
14	 C20	13.904	54.539	90.962	C.3	1	RES1	0.000	
15	 C21	14.491	54.564	89.579	C.3	1	RES1	0.000	
16	 C22	13.274	54.885	88.705	C.3	1	RES1	0.000	
17	 C23	12.119	54.171	89.424	C.3	1	RES1	0.000	
18	 C24	11.864	52.792	88.799	C.2	1	RES1	0.000	
19	 C25	10.620	51.565	87.036	C.3	1	RES1	0.000	
20	 C26	11.438	51.484	85.751	C.2	1	RES1	0.000	
21	 C27	11.515	50.299	85.043	C.2	1	RES1	0.000	
22	 C28	12.289	50.183	83.901	C.2	1	RES1	0.000	
23	 C29	13.029	51.294	83.424	C.2	1	RES1	0.000	
24	 C30	13.879	51.191	82.252	C.2	1	RES1	0.000	
25	 C31	13.606	50.620	80.981	C.2	1	RES1	0.000	
26	 C32	12.379	50.024	80.501	C.3	1	RES1	0.000	
27	 C33	15.708	51.295	80.662	C.2	1	RES1	0.000	
28	 C34	12.959	52.497	84.161	C.2	1	RES1	0.000	
29	 C35	12.149	52.592	85.293	C.2	1	RES1	0.000	
30	 C36	12.309	52.430	93.862	C.3	1	RES1	0.000	
31	 C37	13.242	51.564	92.996	C.3	1	RES1	0.000	
32	 C38	12.931	52.570	95.256	C.3	1	RES1	0.000	
33	 C39	10.961	51.729	94.015	C.3	1	RES1	0.000	
@<TRIPOS>BOND
1 1 24 ar
2 1 27 ar
3 10 11 1
4 2 11 2
5 3 11 1
6 3 12 1
7 12 13 1
8 12 30 1
9 4 13 2
10 5 13 1
11 5 14 1
12 14 15 1
13 6 15 1
14 15 16 1
15 16 17 1
16 5 17 1
17 17 18 1
18 7 18 1
19 8 18 2
20 7 19 1
21 19 20 1
22 20 21 ar
23 20 29 ar
24 21 22 ar
25 22 23 ar
26 23 24 1
27 23 28 ar
28 24 25 ar
29 9 25 ar
30 25 26 1
31 9 27 ar
32 28 29 ar
33 30 31 1
34 30 32 1
35 30 33 1
@<TRIPOS>SUBSTRUCTURE
1	RES1	1	GROUP	1 ****	RES
