# created with PyMOL 2.5.2
@<TRIPOS>MOLECULE
CRBN_6H0G_E3ligase
20 22 1                 
SMALL
USER_CHARGES
@<TRIPOS>ATOM
1	  C1	3.378	50.680	-78.366	C.2	1	RES1	0.000	
2	  N1	1.705	51.044	-82.314	N.2	1	RES1	0.000	
3	  O1	3.850	50.746	-77.245	O.2	1	RES1	0.000	
4	  C2	3.991	49.889	-79.467	C.3	1	RES1	0.000	
5	  N2	1.659	54.677	-84.770	N.pl3	1	RES1	0.000	
6	  O2	0.698	49.086	-83.137	O.2	1	RES1	0.000	
7	  C3	3.660	50.461	-80.848	C.3	1	RES1	0.000	
8	  C4	2.139	50.556	-80.987	C.3	1	RES1	0.000	
9	  C5	1.025	50.250	-83.191	C.2	1	RES1	0.000	
10	  C6	0.736	51.147	-84.362	C.2	1	RES1	0.000	
11	  N6	2.221	51.379	-78.674	N.pl3	1	RES1	0.000	
12	  C7	0.109	50.818	-85.556	C.2	1	RES1	0.000	
13	  C8	-0.046	51.863	-86.479	C.2	1	RES1	0.000	
14	  C9	0.466	53.126	-86.211	C.2	1	RES1	0.000	
15	  O9	2.329	53.317	-82.215	O.2	1	RES1	0.000	
16	 C10	1.087	53.420	-84.981	C.2	1	RES1	0.000	
17	 O10	0.507	52.029	-79.998	O.2	1	RES1	0.000	
18	 C34	1.232	52.365	-84.108	C.2	1	RES1	0.000	
19	 C35	1.833	52.347	-82.767	C.2	1	RES1	0.000	
20	 C36	1.546	51.391	-79.890	C.2	1	RES1	0.000	
@<TRIPOS>BOND
1 1 3 2
2 1 4 1
3 1 11 1
4 2 8 1
5 2 9 ar
6 2 19 ar
7 4 7 1
8 6 9 2
9 7 8 1
10 9 10 ar
11 10 12 ar
12 12 13 ar
13 13 14 ar
14 5 16 1
15 14 16 ar
16 16 18 ar
17 17 20 2
18 10 18 ar
19 18 19 ar
20 15 19 2
21 8 20 1
22 11 20 1
@<TRIPOS>SUBSTRUCTURE
1	RES1	1	GROUP	1 ****	RES
