# created with PyMOL 2.5.2
@<TRIPOS>MOLECULE
ALK_4W9H_E3ligase
33 35 1                 
SMALL
USER_CHARGES
@<TRIPOS>ATOM
1	  S1	15.512	51.469	82.090	S.2	1	RES1	0.000	
2	  O3	12.324	56.271	94.733	O.2	1	RES1	0.000	
3	  N4	11.004	54.521	93.988	N.pl3	1	RES1	0.000	
4	  O4	10.559	53.727	91.396	O.2	1	RES1	0.000	
5	  N5	12.749	54.050	90.863	N.pl3	1	RES1	0.000	
6	  O5	14.116	56.650	90.252	O.3	1	RES1	0.000	
7	  N6	11.238	53.048	87.704	N.pl3	1	RES1	0.000	
8	  O6	12.388	51.823	89.248	O.2	1	RES1	0.000	
9	  N7	14.521	50.341	80.014	N.2	1	RES1	0.000	
10	 C17	9.990	56.332	95.226	C.3	1	RES1	0.000	
11	 C18	11.242	55.734	94.638	C.2	1	RES1	0.000	
12	 C19	12.039	53.791	93.277	C.3	1	RES1	0.000	
13	 C20	11.702	53.861	91.770	C.2	1	RES1	0.000	
14	 C21	14.097	54.420	91.201	C.3	1	RES1	0.000	
15	 C22	14.547	55.317	90.035	C.3	1	RES1	0.000	
16	 C23	13.807	54.734	88.867	C.3	1	RES1	0.000	
17	 C24	12.501	54.245	89.430	C.3	1	RES1	0.000	
18	 C25	12.067	52.914	88.790	C.2	1	RES1	0.000	
19	 C26	10.730	51.932	86.947	C.3	1	RES1	0.000	
20	 C27	11.517	51.688	85.703	C.2	1	RES1	0.000	
21	 C28	11.452	50.463	85.020	C.2	1	RES1	0.000	
22	 C29	12.236	50.244	83.870	C.2	1	RES1	0.000	
23	 C30	13.082	51.233	83.379	C.2	1	RES1	0.000	
24	 C31	13.880	51.008	82.175	C.2	1	RES1	0.000	
25	 C32	13.516	50.431	80.935	C.2	1	RES1	0.000	
26	 C33	12.190	49.927	80.545	C.3	1	RES1	0.000	
27	 C34	15.634	50.854	80.499	C.2	1	RES1	0.000	
28	 C35	13.131	52.467	84.055	C.2	1	RES1	0.000	
29	 C36	12.370	52.682	85.190	C.2	1	RES1	0.000	
30	 C37	12.254	52.337	93.800	C.3	1	RES1	0.000	
31	 C38	12.697	52.381	95.263	C.3	1	RES1	0.000	
32	 C39	13.335	51.611	92.997	C.3	1	RES1	0.000	
33	 C40	10.943	51.504	93.734	C.3	1	RES1	0.000	
@<TRIPOS>BOND
1 1 24 ar
2 1 27 ar
3 10 11 1
4 2 11 2
5 3 11 1
6 3 12 1
7 12 13 1
8 12 30 1
9 4 13 2
10 5 13 1
11 5 14 1
12 14 15 1
13 6 15 1
14 15 16 1
15 16 17 1
16 5 17 1
17 17 18 1
18 7 18 1
19 8 18 2
20 7 19 1
21 19 20 1
22 20 21 ar
23 20 29 ar
24 21 22 ar
25 22 23 ar
26 23 24 1
27 23 28 ar
28 24 25 ar
29 9 25 ar
30 25 26 1
31 9 27 ar
32 28 29 ar
33 30 31 1
34 30 32 1
35 30 33 1
@<TRIPOS>SUBSTRUCTURE
1	RES1	1	GROUP	1 ****	RES
