# created with PyMOL 2.5.2
@<TRIPOS>MOLECULE
ALK_4W9H_E3ligase
33 35 1                 
SMALL
USER_CHARGES
@<TRIPOS>ATOM
1	  S1	15.502	51.568	82.094	S.2	1	RES1	0.000	
2	  O3	12.370	56.301	94.674	O.2	1	RES1	0.000	
3	  N4	11.027	54.573	93.984	N.pl3	1	RES1	0.000	
4	  O4	10.515	53.742	91.414	O.2	1	RES1	0.000	
5	  N5	12.727	54.048	90.848	N.pl3	1	RES1	0.000	
6	  O5	14.228	56.578	90.277	O.3	1	RES1	0.000	
7	  N6	11.161	52.949	87.727	N.pl3	1	RES1	0.000	
8	  O6	12.435	51.793	89.261	O.2	1	RES1	0.000	
9	  N7	14.542	50.430	80.011	N.2	1	RES1	0.000	
10	 C18	10.054	56.390	95.250	C.3	1	RES1	0.000	
11	 C19	11.278	55.779	94.633	C.2	1	RES1	0.000	
12	 C20	12.053	53.826	93.265	C.3	1	RES1	0.000	
13	 C21	11.704	53.889	91.785	C.2	1	RES1	0.000	
14	 C22	14.116	54.335	91.119	C.3	1	RES1	0.000	
15	 C23	14.534	55.240	89.970	C.3	1	RES1	0.000	
16	 C24	13.726	54.734	88.792	C.3	1	RES1	0.000	
17	 C25	12.431	54.231	89.407	C.3	1	RES1	0.000	
18	 C26	12.038	52.859	88.814	C.2	1	RES1	0.000	
19	 C27	10.703	51.821	86.984	C.3	1	RES1	0.000	
20	 C28	11.536	51.623	85.713	C.2	1	RES1	0.000	
21	 C29	12.344	52.651	85.216	C.2	1	RES1	0.000	
22	 C30	13.114	52.474	84.071	C.2	1	RES1	0.000	
23	 C31	13.095	51.237	83.390	C.2	1	RES1	0.000	
24	 C32	13.885	51.050	82.167	C.2	1	RES1	0.000	
25	 C33	13.536	50.464	80.940	C.2	1	RES1	0.000	
26	 C34	12.228	49.924	80.516	C.3	1	RES1	0.000	
27	 C35	15.647	50.969	80.493	C.2	1	RES1	0.000	
28	 C36	12.268	50.221	83.882	C.2	1	RES1	0.000	
29	 C37	11.506	50.402	85.012	C.2	1	RES1	0.000	
30	 C38	12.235	52.360	93.840	C.3	1	RES1	0.000	
31	 C39	13.257	51.538	93.027	C.3	1	RES1	0.000	
32	 C40	12.690	52.380	95.289	C.3	1	RES1	0.000	
33	 C41	10.886	51.631	93.764	C.3	1	RES1	0.000	
@<TRIPOS>BOND
1 1 24 ar
2 1 27 ar
3 10 11 1
4 2 11 2
5 3 11 1
6 3 12 1
7 12 13 1
8 12 30 1
9 4 13 2
10 5 13 1
11 5 14 1
12 14 15 1
13 6 15 1
14 15 16 1
15 16 17 1
16 5 17 1
17 17 18 1
18 7 18 1
19 8 18 2
20 7 19 1
21 19 20 1
22 20 21 ar
23 20 29 ar
24 21 22 ar
25 22 23 ar
26 23 24 1
27 23 28 ar
28 24 25 ar
29 9 25 ar
30 25 26 1
31 9 27 ar
32 28 29 ar
33 30 31 1
34 30 32 1
35 30 33 1
@<TRIPOS>SUBSTRUCTURE
1	RES1	1	GROUP	1 ****	RES
