# created with PyMOL 2.5.2
@<TRIPOS>MOLECULE
ALK_4W9H_E3ligase
33 35 1                 
SMALL
USER_CHARGES
@<TRIPOS>ATOM
1	  S1	15.507	51.323	82.134	S.2	1	RES1	0.000	
2	  N4	11.082	54.488	94.016	N.pl3	1	RES1	0.000	
3	  N5	12.797	54.115	90.916	N.pl3	1	RES1	0.000	
4	  O5	12.363	56.265	94.718	O.2	1	RES1	0.000	
5	  N6	11.279	53.086	87.672	N.pl3	1	RES1	0.000	
6	  O6	10.634	53.636	91.452	O.2	1	RES1	0.000	
7	  N7	14.500	50.282	80.032	N.2	1	RES1	0.000	
8	  O7	14.092	56.766	90.108	O.3	1	RES1	0.000	
9	  O8	12.373	51.844	89.221	O.2	1	RES1	0.000	
10	 C16	10.060	56.300	95.245	C.3	1	RES1	0.000	
11	 C17	11.299	55.698	94.649	C.2	1	RES1	0.000	
12	 C18	12.119	53.744	93.316	C.3	1	RES1	0.000	
13	 C19	11.754	53.820	91.825	C.2	1	RES1	0.000	
14	 C20	14.145	54.583	91.190	C.3	1	RES1	0.000	
15	 C21	14.552	55.412	89.975	C.3	1	RES1	0.000	
16	 C22	13.793	54.738	88.834	C.3	1	RES1	0.000	
17	 C23	12.511	54.225	89.471	C.3	1	RES1	0.000	
18	 C24	12.092	52.922	88.768	C.2	1	RES1	0.000	
19	 C25	10.712	52.022	86.924	C.3	1	RES1	0.000	
20	 C26	11.479	51.758	85.674	C.2	1	RES1	0.000	
21	 C27	11.368	50.550	84.976	C.2	1	RES1	0.000	
22	 C28	12.111	50.307	83.815	C.2	1	RES1	0.000	
23	 C29	13.002	51.290	83.340	C.2	1	RES1	0.000	
24	 C30	13.811	50.978	82.129	C.2	1	RES1	0.000	
25	 C31	13.478	50.388	80.933	C.2	1	RES1	0.000	
26	 C32	12.156	49.891	80.504	C.3	1	RES1	0.000	
27	 C33	15.608	50.726	80.550	C.2	1	RES1	0.000	
28	 C34	13.114	52.481	84.006	C.2	1	RES1	0.000	
29	 C35	12.354	52.741	85.170	C.2	1	RES1	0.000	
30	 C36	12.291	52.277	93.863	C.3	1	RES1	0.000	
31	 C37	13.250	51.461	93.034	C.3	1	RES1	0.000	
32	 C38	12.770	52.316	95.317	C.3	1	RES1	0.000	
33	 C39	10.912	51.584	93.867	C.3	1	RES1	0.000	
@<TRIPOS>BOND
1 1 24 ar
2 1 27 ar
3 10 11 1
4 2 11 1
5 4 11 2
6 2 12 1
7 12 13 1
8 12 30 1
9 3 13 1
10 6 13 2
11 3 14 1
12 14 15 1
13 8 15 1
14 15 16 1
15 16 17 1
16 3 17 1
17 17 18 1
18 5 18 1
19 9 18 2
20 5 19 1
21 19 20 1
22 20 21 ar
23 20 29 ar
24 21 22 ar
25 22 23 ar
26 23 24 1
27 23 28 ar
28 24 25 ar
29 7 25 ar
30 25 26 1
31 7 27 ar
32 28 29 ar
33 30 31 1
34 30 32 1
35 30 33 1
@<TRIPOS>SUBSTRUCTURE
1	RES1	1	GROUP	1 ****	RES
