# created with PyMOL 2.5.2
@<TRIPOS>MOLECULE
ALK_4W9H_E3ligase
33 35 1                 
SMALL
USER_CHARGES
@<TRIPOS>ATOM
1	  S1	15.484	51.462	82.114	S.2	1	RES1	0.000	
2	  N4	11.005	54.507	93.998	N.pl3	1	RES1	0.000	
3	  N5	12.738	54.095	90.884	N.pl3	1	RES1	0.000	
4	  N6	11.243	53.108	87.710	N.pl3	1	RES1	0.000	
5	  O6	12.274	56.282	94.693	O.2	1	RES1	0.000	
6	  N7	14.554	50.308	80.001	N.2	1	RES1	0.000	
7	  O7	10.552	53.659	91.400	O.2	1	RES1	0.000	
8	  O8	14.234	56.654	90.373	O.3	1	RES1	0.000	
9	  O9	12.386	51.880	89.281	O.2	1	RES1	0.000	
10	 C18	9.967	56.290	95.222	C.3	1	RES1	0.000	
11	 C19	11.185	55.696	94.647	C.2	1	RES1	0.000	
12	 C20	12.059	53.793	93.285	C.3	1	RES1	0.000	
13	 C21	11.689	53.866	91.780	C.2	1	RES1	0.000	
14	 C22	14.122	54.373	91.193	C.3	1	RES1	0.000	
15	 C23	14.596	55.285	90.070	C.3	1	RES1	0.000	
16	 C24	13.766	54.826	88.862	C.3	1	RES1	0.000	
17	 C25	12.483	54.289	89.454	C.3	1	RES1	0.000	
18	 C26	12.075	52.967	88.793	C.2	1	RES1	0.000	
19	 C27	10.745	51.970	86.966	C.3	1	RES1	0.000	
20	 C28	11.521	51.746	85.686	C.2	1	RES1	0.000	
21	 C29	11.442	50.497	85.009	C.2	1	RES1	0.000	
22	 C30	12.205	50.252	83.862	C.2	1	RES1	0.000	
23	 C31	13.011	51.268	83.314	C.2	1	RES1	0.000	
24	 C32	13.837	50.986	82.109	C.2	1	RES1	0.000	
25	 C33	13.515	50.366	80.918	C.2	1	RES1	0.000	
26	 C34	12.225	49.755	80.501	C.3	1	RES1	0.000	
27	 C35	15.651	50.851	80.524	C.2	1	RES1	0.000	
28	 C36	13.107	52.476	84.015	C.2	1	RES1	0.000	
29	 C37	12.386	52.711	85.162	C.2	1	RES1	0.000	
30	 C38	12.251	52.335	93.814	C.3	1	RES1	0.000	
31	 C39	12.742	52.374	95.282	C.3	1	RES1	0.000	
32	 C40	13.341	51.626	93.004	C.3	1	RES1	0.000	
33	 C41	10.979	51.480	93.744	C.3	1	RES1	0.000	
@<TRIPOS>BOND
1 1 24 ar
2 1 27 ar
3 10 11 1
4 2 11 1
5 5 11 2
6 2 12 1
7 12 13 1
8 12 30 1
9 3 13 1
10 7 13 2
11 3 14 1
12 14 15 1
13 8 15 1
14 15 16 1
15 16 17 1
16 3 17 1
17 17 18 1
18 4 18 1
19 9 18 2
20 4 19 1
21 19 20 1
22 20 21 ar
23 20 29 ar
24 21 22 ar
25 22 23 ar
26 23 24 1
27 23 28 ar
28 24 25 ar
29 6 25 ar
30 25 26 1
31 6 27 ar
32 28 29 ar
33 30 31 1
34 30 32 1
35 30 33 1
@<TRIPOS>SUBSTRUCTURE
1	RES1	1	GROUP	1 ****	RES
