# created with PyMOL 2.5.2
@<TRIPOS>MOLECULE
ALK_4W9H_E3ligase
33 35 1                 
SMALL
USER_CHARGES
@<TRIPOS>ATOM
1	  S1	15.475	51.427	82.134	S.2	1	RES1	0.000	
2	  N4	11.076	54.521	94.029	N.pl3	1	RES1	0.000	
3	  N5	12.785	54.080	90.868	N.pl3	1	RES1	0.000	
4	  N6	11.217	53.124	87.664	N.pl3	1	RES1	0.000	
5	  N7	14.548	50.321	80.026	N.2	1	RES1	0.000	
6	  O7	12.431	56.251	94.735	O.2	1	RES1	0.000	
7	  O8	10.611	53.699	91.428	O.2	1	RES1	0.000	
8	  O9	14.090	56.706	90.013	O.3	1	RES1	0.000	
9	 O10	12.279	51.823	89.209	O.2	1	RES1	0.000	
10	 C20	10.107	56.329	95.235	C.3	1	RES1	0.000	
11	 C21	11.346	55.694	94.650	C.2	1	RES1	0.000	
12	 C22	12.114	53.729	93.316	C.3	1	RES1	0.000	
13	 C23	11.762	53.825	91.814	C.2	1	RES1	0.000	
14	 C24	14.147	54.553	91.185	C.3	1	RES1	0.000	
15	 C25	14.540	55.372	89.964	C.3	1	RES1	0.000	
16	 C26	13.811	54.639	88.832	C.3	1	RES1	0.000	
17	 C27	12.511	54.215	89.446	C.3	1	RES1	0.000	
18	 C28	12.043	52.940	88.762	C.2	1	RES1	0.000	
19	 C29	10.650	52.029	86.899	C.3	1	RES1	0.000	
20	 C30	11.446	51.783	85.654	C.2	1	RES1	0.000	
21	 C31	12.345	52.755	85.147	C.2	1	RES1	0.000	
22	 C32	13.100	52.493	84.032	C.2	1	RES1	0.000	
23	 C33	13.046	51.218	83.360	C.2	1	RES1	0.000	
24	 C34	13.846	50.960	82.166	C.2	1	RES1	0.000	
25	 C35	13.497	50.393	80.952	C.2	1	RES1	0.000	
26	 C36	12.200	49.789	80.553	C.3	1	RES1	0.000	
27	 C37	15.620	50.859	80.544	C.2	1	RES1	0.000	
28	 C38	12.123	50.280	83.878	C.2	1	RES1	0.000	
29	 C39	11.360	50.565	84.998	C.2	1	RES1	0.000	
30	 C40	12.259	52.295	93.871	C.3	1	RES1	0.000	
31	 C41	13.232	51.413	93.033	C.3	1	RES1	0.000	
32	 C42	12.835	52.352	95.322	C.3	1	RES1	0.000	
33	 C43	10.918	51.585	93.923	C.3	1	RES1	0.000	
@<TRIPOS>BOND
1 1 24 ar
2 1 27 ar
3 9 18 2
4 10 11 1
5 2 11 1
6 6 11 2
7 2 12 1
8 12 13 1
9 12 30 1
10 3 13 1
11 7 13 2
12 3 14 1
13 14 15 1
14 8 15 1
15 15 16 1
16 16 17 1
17 3 17 1
18 17 18 1
19 4 18 1
20 4 19 1
21 19 20 1
22 20 21 ar
23 20 29 ar
24 21 22 ar
25 22 23 ar
26 23 24 1
27 23 28 ar
28 24 25 ar
29 5 25 ar
30 25 26 1
31 5 27 ar
32 28 29 ar
33 30 31 1
34 30 32 1
35 30 33 1
@<TRIPOS>SUBSTRUCTURE
1	RES1	1	GROUP	1 ****	RES
