# created with PyMOL 2.5.2
@<TRIPOS>MOLECULE
ALK_4W9H_E3ligase
33 35 1                 
SMALL
USER_CHARGES
@<TRIPOS>ATOM
1	  S1	15.541	51.325	82.160	S.2	1	RES1	0.000	
2	  N4	11.081	54.511	94.022	N.pl3	1	RES1	0.000	
3	  N5	12.778	54.098	90.887	N.pl3	1	RES1	0.000	
4	  N6	11.234	53.071	87.677	N.pl3	1	RES1	0.000	
5	  N7	14.495	50.346	80.021	N.2	1	RES1	0.000	
6	  O8	12.445	56.239	94.696	O.2	1	RES1	0.000	
7	  O9	10.613	53.640	91.424	O.2	1	RES1	0.000	
8	 O10	14.061	56.746	90.087	O.3	1	RES1	0.000	
9	 O11	12.383	51.817	89.223	O.2	1	RES1	0.000	
10	 C22	10.142	56.335	95.246	C.3	1	RES1	0.000	
11	 C23	11.347	55.702	94.642	C.2	1	RES1	0.000	
12	 C24	12.129	53.748	93.310	C.3	1	RES1	0.000	
13	 C25	11.770	53.837	91.812	C.2	1	RES1	0.000	
14	 C26	14.137	54.574	91.176	C.3	1	RES1	0.000	
15	 C27	14.514	55.405	89.960	C.3	1	RES1	0.000	
16	 C28	13.762	54.703	88.815	C.3	1	RES1	0.000	
17	 C29	12.483	54.214	89.464	C.3	1	RES1	0.000	
18	 C30	12.077	52.910	88.771	C.2	1	RES1	0.000	
19	 C31	10.681	51.974	86.901	C.3	1	RES1	0.000	
20	 C32	11.436	51.742	85.633	C.2	1	RES1	0.000	
21	 C33	11.333	50.518	84.944	C.2	1	RES1	0.000	
22	 C34	12.112	50.298	83.822	C.2	1	RES1	0.000	
23	 C35	13.040	51.248	83.362	C.2	1	RES1	0.000	
24	 C36	13.861	50.982	82.162	C.2	1	RES1	0.000	
25	 C37	13.500	50.441	80.939	C.2	1	RES1	0.000	
26	 C38	12.160	49.981	80.518	C.3	1	RES1	0.000	
27	 C39	15.615	50.774	80.538	C.2	1	RES1	0.000	
28	 C40	13.131	52.436	84.060	C.2	1	RES1	0.000	
29	 C41	12.357	52.680	85.177	C.2	1	RES1	0.000	
30	 C42	12.258	52.299	93.877	C.3	1	RES1	0.000	
31	 C43	12.757	52.385	95.328	C.3	1	RES1	0.000	
32	 C44	13.249	51.410	93.112	C.3	1	RES1	0.000	
33	 C45	10.889	51.633	93.888	C.3	1	RES1	0.000	
@<TRIPOS>BOND
1 1 24 ar
2 1 27 ar
3 8 15 1
4 9 18 2
5 10 11 1
6 2 11 1
7 6 11 2
8 2 12 1
9 12 13 1
10 12 30 1
11 3 13 1
12 7 13 2
13 3 14 1
14 14 15 1
15 15 16 1
16 16 17 1
17 3 17 1
18 17 18 1
19 4 18 1
20 4 19 1
21 19 20 1
22 20 21 ar
23 20 29 ar
24 21 22 ar
25 22 23 ar
26 23 24 1
27 23 28 ar
28 24 25 ar
29 5 25 ar
30 25 26 1
31 5 27 ar
32 28 29 ar
33 30 31 1
34 30 32 1
35 30 33 1
@<TRIPOS>SUBSTRUCTURE
1	RES1	1	GROUP	1 ****	RES
