# created with PyMOL 2.5.2
@<TRIPOS>MOLECULE
EGFR_4W9H_E3ligase
33 35 1                 
SMALL
USER_CHARGES
@<TRIPOS>ATOM
1	  S1	15.459	51.496	82.170	S.2	1	RES1	0.000	
2	  O4	12.416	56.272	94.690	O.2	1	RES1	0.000	
3	  O5	10.615	53.697	91.441	O.2	1	RES1	0.000	
4	  O6	14.142	56.699	90.100	O.3	1	RES1	0.000	
5	  N7	11.079	54.510	94.019	N.pl3	1	RES1	0.000	
6	  O7	12.312	51.816	89.285	O.2	1	RES1	0.000	
7	  N8	12.812	54.104	90.895	N.pl3	1	RES1	0.000	
8	  N9	11.226	53.094	87.702	N.pl3	1	RES1	0.000	
9	 N10	14.581	50.351	80.045	N.2	1	RES1	0.000	
10	 C32	10.095	56.334	95.253	C.3	1	RES1	0.000	
11	 C33	11.325	55.717	94.656	C.2	1	RES1	0.000	
12	 C34	12.108	53.764	93.316	C.3	1	RES1	0.000	
13	 C35	11.776	53.833	91.815	C.2	1	RES1	0.000	
14	 C36	14.150	54.519	91.159	C.3	1	RES1	0.000	
15	 C37	14.564	55.337	89.935	C.3	1	RES1	0.000	
16	 C38	13.805	54.702	88.825	C.3	1	RES1	0.000	
17	 C39	12.502	54.204	89.451	C.3	1	RES1	0.000	
18	 C40	12.058	52.911	88.782	C.2	1	RES1	0.000	
19	 C41	10.647	51.993	86.924	C.3	1	RES1	0.000	
20	 C42	11.452	51.730	85.664	C.2	1	RES1	0.000	
21	 C43	11.330	50.517	84.970	C.2	1	RES1	0.000	
22	 C44	12.080	50.273	83.861	C.2	1	RES1	0.000	
23	 C45	12.986	51.204	83.334	C.2	1	RES1	0.000	
24	 C46	13.809	50.966	82.186	C.2	1	RES1	0.000	
25	 C47	13.531	50.397	80.923	C.2	1	RES1	0.000	
26	 C48	12.221	49.844	80.464	C.3	1	RES1	0.000	
27	 C49	15.648	50.877	80.594	C.2	1	RES1	0.000	
28	 C50	13.068	52.435	84.026	C.2	1	RES1	0.000	
29	 C51	12.326	52.675	85.153	C.2	1	RES1	0.000	
30	 C52	12.286	52.328	93.839	C.3	1	RES1	0.000	
31	 C53	13.264	51.481	92.991	C.3	1	RES1	0.000	
32	 C54	12.796	52.327	95.288	C.3	1	RES1	0.000	
33	 C55	10.900	51.594	93.862	C.3	1	RES1	0.000	
@<TRIPOS>BOND
1 1 24 ar
2 1 27 ar
3 9 25 ar
4 9 27 ar
5 10 11 1
6 2 11 2
7 5 11 1
8 5 12 1
9 12 13 1
10 12 30 1
11 3 13 2
12 7 13 1
13 7 14 1
14 14 15 1
15 4 15 1
16 15 16 1
17 16 17 1
18 7 17 1
19 17 18 1
20 6 18 2
21 8 18 1
22 8 19 1
23 19 20 1
24 20 21 ar
25 20 29 ar
26 21 22 ar
27 22 23 ar
28 23 24 1
29 23 28 ar
30 24 25 ar
31 25 26 1
32 28 29 ar
33 30 31 1
34 30 32 1
35 30 33 1
@<TRIPOS>SUBSTRUCTURE
1	RES1	1	GROUP	1 ****	RES
