# created with PyMOL 2.5.2
@<TRIPOS>MOLECULE
EGFR_4W9H_E3ligase
33 35 1                 
SMALL
USER_CHARGES
@<TRIPOS>ATOM
1	  S1	15.500	51.789	82.139	S.2	1	RES1	0.000	
2	  O4	12.525	56.405	94.583	O.2	1	RES1	0.000	
3	  O5	10.331	53.826	91.591	O.2	1	RES1	0.000	
4	  O6	15.468	55.523	89.418	O.3	1	RES1	0.000	
5	  N7	11.116	54.643	94.104	N.pl3	1	RES1	0.000	
6	  O7	12.460	51.828	89.228	O.2	1	RES1	0.000	
7	  N8	12.479	54.146	90.840	N.pl3	1	RES1	0.000	
8	  N9	10.973	52.830	87.768	N.pl3	1	RES1	0.000	
9	 N10	14.547	50.716	80.012	N.2	1	RES1	0.000	
10	 C32	10.277	56.513	95.422	C.3	1	RES1	0.000	
11	 C33	11.434	55.863	94.685	C.2	1	RES1	0.000	
12	 C34	12.074	53.887	93.287	C.3	1	RES1	0.000	
13	 C35	11.523	53.956	91.865	C.2	1	RES1	0.000	
14	 C36	13.888	54.454	90.968	C.3	1	RES1	0.000	
15	 C37	14.422	54.556	89.525	C.3	1	RES1	0.000	
16	 C38	13.181	54.944	88.749	C.3	1	RES1	0.000	
17	 C39	12.046	54.233	89.429	C.3	1	RES1	0.000	
18	 C40	11.865	52.833	88.820	C.2	1	RES1	0.000	
19	 C41	10.695	51.562	87.060	C.3	1	RES1	0.000	
20	 C42	11.550	51.455	85.813	C.2	1	RES1	0.000	
21	 C43	12.225	52.571	85.318	C.2	1	RES1	0.000	
22	 C44	13.008	52.478	84.149	C.2	1	RES1	0.000	
23	 C45	13.103	51.298	83.464	C.2	1	RES1	0.000	
24	 C46	13.916	51.191	82.215	C.2	1	RES1	0.000	
25	 C47	13.581	50.637	80.990	C.2	1	RES1	0.000	
26	 C48	12.345	49.930	80.612	C.3	1	RES1	0.000	
27	 C49	15.619	51.308	80.531	C.2	1	RES1	0.000	
28	 C50	12.409	50.180	83.931	C.2	1	RES1	0.000	
29	 C51	11.629	50.255	85.087	C.2	1	RES1	0.000	
30	 C52	12.256	52.418	93.841	C.3	1	RES1	0.000	
31	 C53	13.134	51.528	92.954	C.3	1	RES1	0.000	
32	 C54	12.922	52.501	95.236	C.3	1	RES1	0.000	
33	 C55	10.867	51.752	93.998	C.3	1	RES1	0.000	
@<TRIPOS>BOND
1 1 24 ar
2 1 27 ar
3 9 25 ar
4 9 27 ar
5 10 11 1
6 2 11 2
7 5 11 1
8 5 12 1
9 12 13 1
10 12 30 1
11 3 13 2
12 7 13 1
13 7 14 1
14 14 15 1
15 4 15 1
16 15 16 1
17 16 17 1
18 7 17 1
19 17 18 1
20 6 18 2
21 8 18 1
22 8 19 1
23 19 20 1
24 20 21 ar
25 20 29 ar
26 21 22 ar
27 22 23 ar
28 23 24 1
29 23 28 ar
30 24 25 ar
31 25 26 1
32 28 29 ar
33 30 31 1
34 30 32 1
35 30 33 1
@<TRIPOS>SUBSTRUCTURE
1	RES1	1	GROUP	1 ****	RES
