# created with PyMOL 2.5.2
@<TRIPOS>MOLECULE
EGFR_4W9H_E3ligase
33 35 1                 
SMALL
USER_CHARGES
@<TRIPOS>ATOM
1	  S1	15.501	51.448	82.157	S.2	1	RES1	0.000	
2	  O3	12.221	56.279	94.741	O.2	1	RES1	0.000	
3	  O4	10.612	53.714	91.413	O.2	1	RES1	0.000	
4	  O5	14.162	56.669	90.072	O.3	1	RES1	0.000	
5	  O6	12.279	51.829	89.304	O.2	1	RES1	0.000	
6	  N7	10.986	54.474	93.982	N.pl3	1	RES1	0.000	
7	  N8	12.800	54.081	90.870	N.pl3	1	RES1	0.000	
8	  N9	11.235	53.087	87.687	N.pl3	1	RES1	0.000	
9	 N10	14.554	50.352	80.022	N.2	1	RES1	0.000	
10	 C32	9.882	56.251	95.180	C.3	1	RES1	0.000	
11	 C33	11.151	55.713	94.639	C.2	1	RES1	0.000	
12	 C34	12.082	53.775	93.299	C.3	1	RES1	0.000	
13	 C35	11.766	53.831	91.774	C.2	1	RES1	0.000	
14	 C36	14.162	54.518	91.195	C.3	1	RES1	0.000	
15	 C37	14.607	55.307	89.996	C.3	1	RES1	0.000	
16	 C38	13.883	54.619	88.837	C.3	1	RES1	0.000	
17	 C39	12.531	54.204	89.440	C.3	1	RES1	0.000	
18	 C40	12.055	52.909	88.766	C.2	1	RES1	0.000	
19	 C41	10.674	51.968	86.925	C.3	1	RES1	0.000	
20	 C42	11.484	51.719	85.668	C.2	1	RES1	0.000	
21	 C43	12.337	52.700	85.180	C.2	1	RES1	0.000	
22	 C44	13.108	52.465	84.046	C.2	1	RES1	0.000	
23	 C45	13.038	51.246	83.346	C.2	1	RES1	0.000	
24	 C46	13.865	50.996	82.173	C.2	1	RES1	0.000	
25	 C47	13.543	50.432	80.929	C.2	1	RES1	0.000	
26	 C48	12.206	49.945	80.469	C.3	1	RES1	0.000	
27	 C49	15.670	50.837	80.554	C.2	1	RES1	0.000	
28	 C50	12.168	50.262	83.854	C.2	1	RES1	0.000	
29	 C51	11.415	50.501	84.995	C.2	1	RES1	0.000	
30	 C52	12.312	52.349	93.854	C.3	1	RES1	0.000	
31	 C53	13.405	51.569	93.123	C.3	1	RES1	0.000	
32	 C54	12.676	52.405	95.364	C.3	1	RES1	0.000	
33	 C55	10.995	51.533	93.741	C.3	1	RES1	0.000	
@<TRIPOS>BOND
1 1 24 ar
2 1 27 ar
3 2 11 2
4 9 25 ar
5 9 27 ar
6 10 11 1
7 6 11 1
8 6 12 1
9 12 13 1
10 12 30 1
11 3 13 2
12 7 13 1
13 7 14 1
14 14 15 1
15 4 15 1
16 15 16 1
17 16 17 1
18 7 17 1
19 17 18 1
20 5 18 2
21 8 18 1
22 8 19 1
23 19 20 1
24 20 21 ar
25 20 29 ar
26 21 22 ar
27 22 23 ar
28 23 24 1
29 23 28 ar
30 24 25 ar
31 25 26 1
32 28 29 ar
33 30 31 1
34 30 32 1
35 30 33 1
@<TRIPOS>SUBSTRUCTURE
1	RES1	1	GROUP	1 ****	RES
