# created with PyMOL 2.5.2
@<TRIPOS>MOLECULE
EGFR_4W9H_E3ligase
33 35 1                 
SMALL
USER_CHARGES
@<TRIPOS>ATOM
1	  S1	15.484	51.380	82.082	S.2	1	RES1	0.000	
2	  O3	12.252	56.270	94.737	O.2	1	RES1	0.000	
3	  O4	10.574	53.690	91.391	O.2	1	RES1	0.000	
4	  O5	14.103	56.740	90.318	O.3	1	RES1	0.000	
5	  O6	12.478	51.879	89.248	O.2	1	RES1	0.000	
6	  N7	11.002	54.494	93.998	N.pl3	1	RES1	0.000	
7	  N8	12.779	54.096	90.889	N.pl3	1	RES1	0.000	
8	  N9	11.295	53.126	87.717	N.pl3	1	RES1	0.000	
9	 N10	14.539	50.298	79.969	N.2	1	RES1	0.000	
10	 C32	9.901	56.238	95.250	C.3	1	RES1	0.000	
11	 C33	11.176	55.672	94.651	C.2	1	RES1	0.000	
12	 C34	12.061	53.776	93.295	C.3	1	RES1	0.000	
13	 C35	11.719	53.870	91.774	C.2	1	RES1	0.000	
14	 C36	14.118	54.492	91.270	C.3	1	RES1	0.000	
15	 C37	14.578	55.408	90.105	C.3	1	RES1	0.000	
16	 C38	13.855	54.839	88.898	C.3	1	RES1	0.000	
17	 C39	12.538	54.323	89.466	C.3	1	RES1	0.000	
18	 C40	12.114	52.980	88.802	C.2	1	RES1	0.000	
19	 C41	10.795	51.987	86.947	C.3	1	RES1	0.000	
20	 C42	11.563	51.721	85.721	C.2	1	RES1	0.000	
21	 C43	12.411	52.684	85.163	C.2	1	RES1	0.000	
22	 C44	13.116	52.434	83.983	C.2	1	RES1	0.000	
23	 C45	13.011	51.188	83.312	C.2	1	RES1	0.000	
24	 C46	13.796	50.940	82.113	C.2	1	RES1	0.000	
25	 C47	13.482	50.372	80.872	C.2	1	RES1	0.000	
26	 C48	12.149	49.889	80.411	C.3	1	RES1	0.000	
27	 C49	15.615	50.791	80.505	C.2	1	RES1	0.000	
28	 C50	12.205	50.223	83.915	C.2	1	RES1	0.000	
29	 C51	11.491	50.478	85.100	C.2	1	RES1	0.000	
30	 C52	12.254	52.322	93.806	C.3	1	RES1	0.000	
31	 C53	13.308	51.550	92.967	C.3	1	RES1	0.000	
32	 C54	12.679	52.300	95.276	C.3	1	RES1	0.000	
33	 C55	10.928	51.554	93.674	C.3	1	RES1	0.000	
@<TRIPOS>BOND
1 1 24 ar
2 1 27 ar
3 2 11 2
4 9 25 ar
5 9 27 ar
6 10 11 1
7 6 11 1
8 6 12 1
9 12 13 1
10 12 30 1
11 3 13 2
12 7 13 1
13 7 14 1
14 14 15 1
15 4 15 1
16 15 16 1
17 16 17 1
18 7 17 1
19 17 18 1
20 5 18 2
21 8 18 1
22 8 19 1
23 19 20 1
24 20 21 ar
25 20 29 ar
26 21 22 ar
27 22 23 ar
28 23 24 1
29 23 28 ar
30 24 25 ar
31 25 26 1
32 28 29 ar
33 30 31 1
34 30 32 1
35 30 33 1
@<TRIPOS>SUBSTRUCTURE
1	RES1	1	GROUP	1 ****	RES
