# created with PyMOL 2.5.2
@<TRIPOS>MOLECULE
CRBN_6H0G_E3ligase
20 22 1                 
SMALL
USER_CHARGES
@<TRIPOS>ATOM
1	  C1	3.401	50.702	-78.366	C.2	1	RES1	0.000	
2	  N1	1.690	51.041	-82.310	N.2	1	RES1	0.000	
3	  O1	3.856	50.753	-77.247	O.2	1	RES1	0.000	
4	  C2	3.994	49.899	-79.489	C.3	1	RES1	0.000	
5	  N2	1.682	54.701	-84.761	N.pl3	1	RES1	0.000	
6	  O2	0.698	49.070	-83.144	O.2	1	RES1	0.000	
7	  C3	3.655	50.454	-80.848	C.3	1	RES1	0.000	
8	  C4	2.135	50.540	-80.998	C.3	1	RES1	0.000	
9	  C5	1.013	50.270	-83.217	C.2	1	RES1	0.000	
10	  C6	0.734	51.116	-84.345	C.2	1	RES1	0.000	
11	  N6	2.219	51.373	-78.669	N.pl3	1	RES1	0.000	
12	  C7	0.092	50.825	-85.541	C.2	1	RES1	0.000	
13	  C8	-0.043	51.846	-86.504	C.2	1	RES1	0.000	
14	  C9	0.466	53.133	-86.222	C.2	1	RES1	0.000	
15	 C10	1.112	53.436	-84.991	C.2	1	RES1	0.000	
16	 O10	2.312	53.299	-82.209	O.2	1	RES1	0.000	
17	 O11	0.491	52.011	-80.006	O.2	1	RES1	0.000	
18	 C34	1.229	52.360	-84.087	C.2	1	RES1	0.000	
19	 C35	1.836	52.357	-82.737	C.2	1	RES1	0.000	
20	 C36	1.551	51.407	-79.875	C.2	1	RES1	0.000	
@<TRIPOS>BOND
1 1 4 1
2 1 11 1
3 2 8 1
4 2 9 ar
5 2 19 ar
6 1 3 2
7 4 7 1
8 6 9 2
9 7 8 1
10 9 10 ar
11 10 12 ar
12 12 13 ar
13 13 14 ar
14 5 15 1
15 14 15 ar
16 15 18 ar
17 16 19 2
18 17 20 2
19 10 18 ar
20 18 19 ar
21 8 20 1
22 11 20 1
@<TRIPOS>SUBSTRUCTURE
1	RES1	1	GROUP	1 ****	RES
