# created with PyMOL 2.5.2
@<TRIPOS>MOLECULE
EGFR_4W9H_E3ligase
33 35 1                 
SMALL
USER_CHARGES
@<TRIPOS>ATOM
1	  S1	15.515	51.443	82.119	S.2	1	RES1	0.000	
2	  O4	12.352	56.329	94.681	O.2	1	RES1	0.000	
3	  O5	10.557	53.664	91.489	O.2	1	RES1	0.000	
4	  O6	14.025	56.667	90.247	O.3	1	RES1	0.000	
5	  N7	11.027	54.540	94.049	N.pl3	1	RES1	0.000	
6	  O7	12.428	51.792	89.109	O.2	1	RES1	0.000	
7	  N8	12.720	54.022	90.901	N.pl3	1	RES1	0.000	
8	  N9	11.234	53.084	87.660	N.pl3	1	RES1	0.000	
9	 N10	14.584	50.327	79.993	N.2	1	RES1	0.000	
10	 C30	10.053	56.381	95.267	C.3	1	RES1	0.000	
11	 C31	11.271	55.766	94.651	C.2	1	RES1	0.000	
12	 C32	12.084	53.792	93.336	C.3	1	RES1	0.000	
13	 C33	11.680	53.836	91.842	C.2	1	RES1	0.000	
14	 C34	14.084	54.413	91.227	C.3	1	RES1	0.000	
15	 C35	14.497	55.346	90.077	C.3	1	RES1	0.000	
16	 C36	13.798	54.725	88.902	C.3	1	RES1	0.000	
17	 C37	12.492	54.187	89.458	C.3	1	RES1	0.000	
18	 C38	12.030	52.912	88.755	C.2	1	RES1	0.000	
19	 C39	10.705	51.975	86.872	C.3	1	RES1	0.000	
20	 C40	11.501	51.724	85.641	C.2	1	RES1	0.000	
21	 C41	11.415	50.501	84.944	C.2	1	RES1	0.000	
22	 C42	12.161	50.265	83.815	C.2	1	RES1	0.000	
23	 C43	13.035	51.254	83.323	C.2	1	RES1	0.000	
24	 C44	13.874	50.991	82.118	C.2	1	RES1	0.000	
25	 C45	13.545	50.407	80.899	C.2	1	RES1	0.000	
26	 C46	12.254	49.830	80.479	C.3	1	RES1	0.000	
27	 C47	15.665	50.875	80.500	C.2	1	RES1	0.000	
28	 C48	13.151	52.447	83.995	C.2	1	RES1	0.000	
29	 C49	12.398	52.689	85.142	C.2	1	RES1	0.000	
30	 C50	12.251	52.326	93.878	C.3	1	RES1	0.000	
31	 C51	13.349	51.606	93.087	C.3	1	RES1	0.000	
32	 C52	12.685	52.393	95.368	C.3	1	RES1	0.000	
33	 C53	10.951	51.500	93.808	C.3	1	RES1	0.000	
@<TRIPOS>BOND
1 1 24 ar
2 1 27 ar
3 9 25 ar
4 9 27 ar
5 10 11 1
6 2 11 2
7 5 11 1
8 5 12 1
9 12 13 1
10 12 30 1
11 3 13 2
12 7 13 1
13 7 14 1
14 14 15 1
15 4 15 1
16 15 16 1
17 16 17 1
18 7 17 1
19 17 18 1
20 6 18 2
21 8 18 1
22 8 19 1
23 19 20 1
24 20 21 ar
25 20 29 ar
26 21 22 ar
27 22 23 ar
28 23 24 1
29 23 28 ar
30 24 25 ar
31 25 26 1
32 28 29 ar
33 30 31 1
34 30 32 1
35 30 33 1
@<TRIPOS>SUBSTRUCTURE
1	RES1	1	GROUP	1 ****	RES
