# created with PyMOL 2.5.2
@<TRIPOS>MOLECULE
EGFR_4W9H_E3ligase
33 35 1                 
SMALL
USER_CHARGES
@<TRIPOS>ATOM
1	  S1	15.556	51.569	82.140	S.2	1	RES1	0.000	
2	  O4	12.466	56.376	94.655	O.2	1	RES1	0.000	
3	  O5	10.503	53.752	91.532	O.2	1	RES1	0.000	
4	  O6	14.058	56.559	90.138	O.3	1	RES1	0.000	
5	  N7	11.068	54.615	94.073	N.pl3	1	RES1	0.000	
6	  O7	12.460	51.685	89.028	O.2	1	RES1	0.000	
7	  N8	12.698	53.994	90.904	N.pl3	1	RES1	0.000	
8	  N9	11.104	52.924	87.670	N.pl3	1	RES1	0.000	
9	 N10	14.645	50.448	80.013	N.2	1	RES1	0.000	
10	 C30	10.163	56.473	95.318	C.3	1	RES1	0.000	
11	 C31	11.348	55.814	94.640	C.2	1	RES1	0.000	
12	 C32	12.082	53.857	93.366	C.3	1	RES1	0.000	
13	 C33	11.681	53.864	91.836	C.2	1	RES1	0.000	
14	 C34	14.084	54.365	91.150	C.3	1	RES1	0.000	
15	 C35	14.487	55.202	89.945	C.3	1	RES1	0.000	
16	 C36	13.704	54.587	88.810	C.3	1	RES1	0.000	
17	 C37	12.402	54.096	89.453	C.3	1	RES1	0.000	
18	 C38	11.969	52.765	88.771	C.2	1	RES1	0.000	
19	 C39	10.645	51.809	86.874	C.3	1	RES1	0.000	
20	 C40	11.450	51.626	85.634	C.2	1	RES1	0.000	
21	 C41	11.433	50.425	84.924	C.2	1	RES1	0.000	
22	 C42	12.220	50.258	83.786	C.2	1	RES1	0.000	
23	 C43	13.079	51.248	83.331	C.2	1	RES1	0.000	
24	 C44	13.906	51.045	82.146	C.2	1	RES1	0.000	
25	 C45	13.596	50.500	80.902	C.2	1	RES1	0.000	
26	 C46	12.284	49.967	80.478	C.3	1	RES1	0.000	
27	 C47	15.716	50.996	80.553	C.2	1	RES1	0.000	
28	 C48	13.131	52.466	84.068	C.2	1	RES1	0.000	
29	 C49	12.308	52.670	85.193	C.2	1	RES1	0.000	
30	 C50	12.230	52.381	93.901	C.3	1	RES1	0.000	
31	 C51	13.311	51.568	93.177	C.3	1	RES1	0.000	
32	 C52	12.672	52.446	95.411	C.3	1	RES1	0.000	
33	 C53	10.915	51.658	93.813	C.3	1	RES1	0.000	
@<TRIPOS>BOND
1 1 24 ar
2 1 27 ar
3 9 25 ar
4 9 27 ar
5 10 11 1
6 2 11 2
7 5 11 1
8 5 12 1
9 12 13 1
10 12 30 1
11 3 13 2
12 7 13 1
13 7 14 1
14 14 15 1
15 4 15 1
16 15 16 1
17 16 17 1
18 7 17 1
19 17 18 1
20 6 18 2
21 8 18 1
22 8 19 1
23 19 20 1
24 20 21 ar
25 20 29 ar
26 21 22 ar
27 22 23 ar
28 23 24 1
29 23 28 ar
30 24 25 ar
31 25 26 1
32 28 29 ar
33 30 31 1
34 30 32 1
35 30 33 1
@<TRIPOS>SUBSTRUCTURE
1	RES1	1	GROUP	1 ****	RES
