# created with PyMOL 2.5.2
@<TRIPOS>MOLECULE
EGFR_4W9H_E3ligase
33 35 1                 
SMALL
USER_CHARGES
@<TRIPOS>ATOM
1	  S1	15.539	51.592	82.275	S.2	1	RES1	0.000	
2	  O4	12.516	56.357	94.666	O.2	1	RES1	0.000	
3	  O5	10.532	53.748	91.508	O.2	1	RES1	0.000	
4	  O6	14.069	56.537	90.062	O.3	1	RES1	0.000	
5	  N7	11.101	54.649	94.033	N.pl3	1	RES1	0.000	
6	  O7	12.399	51.638	89.116	O.2	1	RES1	0.000	
7	  N8	12.715	53.971	90.851	N.pl3	1	RES1	0.000	
8	  N9	11.086	52.871	87.703	N.pl3	1	RES1	0.000	
9	 N10	14.729	50.580	80.037	N.2	1	RES1	0.000	
10	 C28	10.193	56.534	95.257	C.3	1	RES1	0.000	
11	 C29	11.395	55.860	94.626	C.2	1	RES1	0.000	
12	 C30	12.102	53.858	93.323	C.3	1	RES1	0.000	
13	 C31	11.701	53.872	91.829	C.2	1	RES1	0.000	
14	 C32	14.092	54.342	91.109	C.3	1	RES1	0.000	
15	 C33	14.486	55.166	89.907	C.3	1	RES1	0.000	
16	 C34	13.702	54.514	88.777	C.3	1	RES1	0.000	
17	 C35	12.407	54.045	89.422	C.3	1	RES1	0.000	
18	 C36	11.923	52.721	88.759	C.2	1	RES1	0.000	
19	 C37	10.605	51.727	86.933	C.3	1	RES1	0.000	
20	 C38	11.440	51.559	85.706	C.2	1	RES1	0.000	
21	 C39	12.244	52.597	85.225	C.2	1	RES1	0.000	
22	 C40	13.014	52.454	84.069	C.2	1	RES1	0.000	
23	 C41	12.998	51.254	83.351	C.2	1	RES1	0.000	
24	 C42	13.882	51.095	82.162	C.2	1	RES1	0.000	
25	 C43	13.645	50.574	80.910	C.2	1	RES1	0.000	
26	 C44	12.341	50.120	80.363	C.3	1	RES1	0.000	
27	 C45	15.771	51.057	80.680	C.2	1	RES1	0.000	
28	 C46	12.216	50.199	83.820	C.2	1	RES1	0.000	
29	 C47	11.435	50.350	84.955	C.2	1	RES1	0.000	
30	 C48	12.252	52.408	93.876	C.3	1	RES1	0.000	
31	 C49	13.298	51.579	93.140	C.3	1	RES1	0.000	
32	 C50	12.648	52.492	95.369	C.3	1	RES1	0.000	
33	 C51	10.893	51.690	93.816	C.3	1	RES1	0.000	
@<TRIPOS>BOND
1 1 24 ar
2 1 27 ar
3 9 25 ar
4 9 27 ar
5 10 11 1
6 2 11 2
7 5 11 1
8 5 12 1
9 12 13 1
10 12 30 1
11 3 13 2
12 7 13 1
13 7 14 1
14 14 15 1
15 4 15 1
16 15 16 1
17 16 17 1
18 7 17 1
19 17 18 1
20 6 18 2
21 8 18 1
22 8 19 1
23 19 20 1
24 20 21 ar
25 20 29 ar
26 21 22 ar
27 22 23 ar
28 23 24 1
29 23 28 ar
30 24 25 ar
31 25 26 1
32 28 29 ar
33 30 31 1
34 30 32 1
35 30 33 1
@<TRIPOS>SUBSTRUCTURE
1	RES1	1	GROUP	1 ****	RES
