# created with PyMOL 2.5.2
@<TRIPOS>MOLECULE
EGFR_4W9H_E3ligase
33 35 1                 
SMALL
USER_CHARGES
@<TRIPOS>ATOM
1	  S1	15.492	51.821	82.183	S.2	1	RES1	0.000	
2	  O4	12.517	56.433	94.611	O.2	1	RES1	0.000	
3	  O5	10.363	53.822	91.612	O.2	1	RES1	0.000	
4	  O6	15.482	55.440	89.413	O.3	1	RES1	0.000	
5	  N7	11.110	54.666	94.099	N.pl3	1	RES1	0.000	
6	  O7	12.403	51.800	89.252	O.2	1	RES1	0.000	
7	  N8	12.479	54.131	90.854	N.pl3	1	RES1	0.000	
8	  N9	10.965	52.797	87.769	N.pl3	1	RES1	0.000	
9	 N10	14.602	50.761	80.019	N.2	1	RES1	0.000	
10	 C28	10.266	56.513	95.395	C.3	1	RES1	0.000	
11	 C29	11.417	55.900	94.690	C.2	1	RES1	0.000	
12	 C30	12.084	53.888	93.294	C.3	1	RES1	0.000	
13	 C31	11.551	53.956	91.884	C.2	1	RES1	0.000	
14	 C32	13.893	54.441	90.956	C.3	1	RES1	0.000	
15	 C33	14.422	54.506	89.521	C.3	1	RES1	0.000	
16	 C34	13.194	54.926	88.713	C.3	1	RES1	0.000	
17	 C35	12.062	54.212	89.441	C.3	1	RES1	0.000	
18	 C36	11.836	52.821	88.841	C.2	1	RES1	0.000	
19	 C37	10.681	51.574	87.033	C.3	1	RES1	0.000	
20	 C38	11.535	51.456	85.794	C.2	1	RES1	0.000	
21	 C39	11.644	50.243	85.100	C.2	1	RES1	0.000	
22	 C40	12.440	50.136	83.953	C.2	1	RES1	0.000	
23	 C41	13.118	51.262	83.444	C.2	1	RES1	0.000	
24	 C42	13.912	51.185	82.215	C.2	1	RES1	0.000	
25	 C43	13.603	50.635	80.968	C.2	1	RES1	0.000	
26	 C44	12.325	49.943	80.580	C.3	1	RES1	0.000	
27	 C45	15.620	51.357	80.527	C.2	1	RES1	0.000	
28	 C46	12.964	52.485	84.151	C.2	1	RES1	0.000	
29	 C47	12.168	52.607	85.297	C.2	1	RES1	0.000	
30	 C48	12.277	52.453	93.846	C.3	1	RES1	0.000	
31	 C49	13.145	51.570	92.946	C.3	1	RES1	0.000	
32	 C50	12.901	52.502	95.231	C.3	1	RES1	0.000	
33	 C51	10.901	51.771	94.003	C.3	1	RES1	0.000	
@<TRIPOS>BOND
1 1 24 ar
2 1 27 ar
3 9 25 ar
4 9 27 ar
5 10 11 1
6 2 11 2
7 5 11 1
8 5 12 1
9 12 13 1
10 12 30 1
11 3 13 2
12 7 13 1
13 7 14 1
14 14 15 1
15 4 15 1
16 15 16 1
17 16 17 1
18 7 17 1
19 17 18 1
20 6 18 2
21 8 18 1
22 8 19 1
23 19 20 1
24 20 21 ar
25 20 29 ar
26 21 22 ar
27 22 23 ar
28 23 24 1
29 23 28 ar
30 24 25 ar
31 25 26 1
32 28 29 ar
33 30 31 1
34 30 32 1
35 30 33 1
@<TRIPOS>SUBSTRUCTURE
1	RES1	1	GROUP	1 ****	RES
