# created with PyMOL 2.5.2
@<TRIPOS>MOLECULE
EGFR_4W9H_E3ligase
33 35 1                 
SMALL
USER_CHARGES
@<TRIPOS>ATOM
1	  S1	15.500	51.459	82.163	S.2	1	RES1	0.000	
2	  O4	12.324	56.323	94.645	O.2	1	RES1	0.000	
3	  O5	10.552	53.703	91.366	O.2	1	RES1	0.000	
4	  O6	14.155	56.639	90.224	O.3	1	RES1	0.000	
5	  N7	11.005	54.518	93.967	N.pl3	1	RES1	0.000	
6	  O7	12.390	51.834	89.265	O.2	1	RES1	0.000	
7	  N8	12.749	54.063	90.864	N.pl3	1	RES1	0.000	
8	  N9	11.212	53.056	87.718	N.pl3	1	RES1	0.000	
9	 N10	14.561	50.436	80.025	N.2	1	RES1	0.000	
10	 C26	9.997	56.323	95.202	C.3	1	RES1	0.000	
11	 C27	11.240	55.720	94.615	C.2	1	RES1	0.000	
12	 C28	12.061	53.797	93.281	C.3	1	RES1	0.000	
13	 C29	11.689	53.852	91.790	C.2	1	RES1	0.000	
14	 C30	14.118	54.404	91.187	C.3	1	RES1	0.000	
15	 C31	14.598	55.270	90.034	C.3	1	RES1	0.000	
16	 C32	13.829	54.726	88.855	C.3	1	RES1	0.000	
17	 C33	12.494	54.244	89.424	C.3	1	RES1	0.000	
18	 C34	12.056	52.918	88.814	C.2	1	RES1	0.000	
19	 C35	10.697	51.935	86.964	C.3	1	RES1	0.000	
20	 C36	11.507	51.695	85.706	C.2	1	RES1	0.000	
21	 C37	12.352	52.685	85.197	C.2	1	RES1	0.000	
22	 C38	13.086	52.448	84.042	C.2	1	RES1	0.000	
23	 C39	13.029	51.201	83.384	C.2	1	RES1	0.000	
24	 C40	13.821	51.008	82.170	C.2	1	RES1	0.000	
25	 C41	13.546	50.449	80.935	C.2	1	RES1	0.000	
26	 C42	12.238	49.886	80.488	C.3	1	RES1	0.000	
27	 C43	15.652	50.919	80.532	C.2	1	RES1	0.000	
28	 C44	12.210	50.230	83.908	C.2	1	RES1	0.000	
29	 C45	11.457	50.448	85.054	C.2	1	RES1	0.000	
30	 C46	12.245	52.331	93.787	C.3	1	RES1	0.000	
31	 C47	13.384	51.605	93.031	C.3	1	RES1	0.000	
32	 C48	12.654	52.375	95.281	C.3	1	RES1	0.000	
33	 C49	10.963	51.490	93.684	C.3	1	RES1	0.000	
@<TRIPOS>BOND
1 1 24 ar
2 1 27 ar
3 9 25 ar
4 9 27 ar
5 10 11 1
6 2 11 2
7 5 11 1
8 5 12 1
9 12 13 1
10 12 30 1
11 3 13 2
12 7 13 1
13 7 14 1
14 14 15 1
15 4 15 1
16 15 16 1
17 16 17 1
18 7 17 1
19 17 18 1
20 6 18 2
21 8 18 1
22 8 19 1
23 19 20 1
24 20 21 ar
25 20 29 ar
26 21 22 ar
27 22 23 ar
28 23 24 1
29 23 28 ar
30 24 25 ar
31 25 26 1
32 28 29 ar
33 30 31 1
34 30 32 1
35 30 33 1
@<TRIPOS>SUBSTRUCTURE
1	RES1	1	GROUP	1 ****	RES
