# created with PyMOL 2.5.2
@<TRIPOS>MOLECULE
EGFR_4W9H_E3ligase
33 35 1                 
SMALL
USER_CHARGES
@<TRIPOS>ATOM
1	  S1	15.460	51.477	82.120	S.2	1	RES1	0.000	
2	  O4	12.458	56.270	94.643	O.2	1	RES1	0.000	
3	  O5	10.611	53.664	91.434	O.2	1	RES1	0.000	
4	  O6	14.130	56.746	90.149	O.3	1	RES1	0.000	
5	  N7	11.068	54.515	94.023	N.pl3	1	RES1	0.000	
6	  O7	12.318	51.860	89.265	O.2	1	RES1	0.000	
7	  N8	12.783	54.083	90.895	N.pl3	1	RES1	0.000	
8	  N9	11.199	53.104	87.686	N.pl3	1	RES1	0.000	
9	 N10	14.550	50.286	80.045	N.2	1	RES1	0.000	
10	 C26	10.110	56.334	95.233	C.3	1	RES1	0.000	
11	 C27	11.358	55.715	94.646	C.2	1	RES1	0.000	
12	 C28	12.134	53.732	93.312	C.3	1	RES1	0.000	
13	 C29	11.774	53.828	91.813	C.2	1	RES1	0.000	
14	 C30	14.145	54.507	91.173	C.3	1	RES1	0.000	
15	 C31	14.536	55.366	89.970	C.3	1	RES1	0.000	
16	 C32	13.781	54.759	88.834	C.3	1	RES1	0.000	
17	 C33	12.482	54.259	89.458	C.3	1	RES1	0.000	
18	 C34	12.045	52.962	88.767	C.2	1	RES1	0.000	
19	 C35	10.681	51.993	86.932	C.3	1	RES1	0.000	
20	 C36	11.482	51.764	85.660	C.2	1	RES1	0.000	
21	 C37	11.360	50.511	85.019	C.2	1	RES1	0.000	
22	 C38	12.129	50.266	83.863	C.2	1	RES1	0.000	
23	 C39	12.991	51.245	83.339	C.2	1	RES1	0.000	
24	 C40	13.820	50.975	82.156	C.2	1	RES1	0.000	
25	 C41	13.518	50.379	80.928	C.2	1	RES1	0.000	
26	 C42	12.220	49.824	80.509	C.3	1	RES1	0.000	
27	 C43	15.641	50.828	80.557	C.2	1	RES1	0.000	
28	 C44	13.083	52.469	84.001	C.2	1	RES1	0.000	
29	 C45	12.329	52.697	85.171	C.2	1	RES1	0.000	
30	 C46	12.270	52.272	93.847	C.3	1	RES1	0.000	
31	 C47	13.249	51.421	93.017	C.3	1	RES1	0.000	
32	 C48	12.764	52.286	95.315	C.3	1	RES1	0.000	
33	 C49	10.891	51.600	93.831	C.3	1	RES1	0.000	
@<TRIPOS>BOND
1 1 24 ar
2 1 27 ar
3 9 25 ar
4 9 27 ar
5 10 11 1
6 2 11 2
7 5 11 1
8 5 12 1
9 12 13 1
10 12 30 1
11 3 13 2
12 7 13 1
13 7 14 1
14 14 15 1
15 4 15 1
16 15 16 1
17 16 17 1
18 7 17 1
19 17 18 1
20 6 18 2
21 8 18 1
22 8 19 1
23 19 20 1
24 20 21 ar
25 20 29 ar
26 21 22 ar
27 22 23 ar
28 23 24 1
29 23 28 ar
30 24 25 ar
31 25 26 1
32 28 29 ar
33 30 31 1
34 30 32 1
35 30 33 1
@<TRIPOS>SUBSTRUCTURE
1	RES1	1	GROUP	1 ****	RES
