# created with PyMOL 2.5.2
@<TRIPOS>MOLECULE
EGFR_4W9H_E3ligase
33 35 1                 
SMALL
USER_CHARGES
@<TRIPOS>ATOM
1	  S1	15.519	51.717	82.138	S.2	1	RES1	0.000	
2	  O3	12.502	56.375	94.656	O.2	1	RES1	0.000	
3	  O4	10.336	53.827	91.604	O.2	1	RES1	0.000	
4	  O5	15.440	55.649	89.498	O.3	1	RES1	0.000	
5	  O6	12.523	51.872	89.212	O.2	1	RES1	0.000	
6	  N7	11.105	54.641	94.129	N.pl3	1	RES1	0.000	
7	  N8	12.488	54.141	90.863	N.pl3	1	RES1	0.000	
8	  N9	11.001	52.808	87.762	N.pl3	1	RES1	0.000	
9	 N10	14.580	50.627	79.995	N.2	1	RES1	0.000	
10	 C30	10.259	56.472	95.467	C.3	1	RES1	0.000	
11	 C31	11.415	55.847	94.737	C.2	1	RES1	0.000	
12	 C32	12.045	53.868	93.322	C.3	1	RES1	0.000	
13	 C33	11.523	53.963	91.875	C.2	1	RES1	0.000	
14	 C34	13.888	54.502	91.029	C.3	1	RES1	0.000	
15	 C35	14.393	54.650	89.598	C.3	1	RES1	0.000	
16	 C36	13.190	55.049	88.795	C.3	1	RES1	0.000	
17	 C37	12.063	54.259	89.443	C.3	1	RES1	0.000	
18	 C38	11.917	52.844	88.840	C.2	1	RES1	0.000	
19	 C39	10.711	51.586	87.019	C.3	1	RES1	0.000	
20	 C40	11.524	51.485	85.763	C.2	1	RES1	0.000	
21	 C41	11.620	50.272	85.069	C.2	1	RES1	0.000	
22	 C42	12.383	50.178	83.914	C.2	1	RES1	0.000	
23	 C43	13.084	51.279	83.397	C.2	1	RES1	0.000	
24	 C44	13.865	51.148	82.174	C.2	1	RES1	0.000	
25	 C45	13.548	50.577	80.940	C.2	1	RES1	0.000	
26	 C46	12.308	49.946	80.528	C.3	1	RES1	0.000	
27	 C47	15.660	51.205	80.513	C.2	1	RES1	0.000	
28	 C48	12.993	52.479	84.106	C.2	1	RES1	0.000	
29	 C49	12.249	52.571	85.305	C.2	1	RES1	0.000	
30	 C50	12.250	52.424	93.845	C.3	1	RES1	0.000	
31	 C51	13.130	51.571	92.874	C.3	1	RES1	0.000	
32	 C52	12.959	52.456	95.199	C.3	1	RES1	0.000	
33	 C53	10.898	51.725	94.025	C.3	1	RES1	0.000	
@<TRIPOS>BOND
1 1 24 ar
2 1 27 ar
3 2 11 2
4 9 25 ar
5 9 27 ar
6 10 11 1
7 6 11 1
8 6 12 1
9 12 13 1
10 12 30 1
11 3 13 2
12 7 13 1
13 7 14 1
14 14 15 1
15 4 15 1
16 15 16 1
17 16 17 1
18 7 17 1
19 17 18 1
20 5 18 2
21 8 18 1
22 8 19 1
23 19 20 1
24 20 21 ar
25 20 29 ar
26 21 22 ar
27 22 23 ar
28 23 24 1
29 23 28 ar
30 24 25 ar
31 25 26 1
32 28 29 ar
33 30 31 1
34 30 32 1
35 30 33 1
@<TRIPOS>SUBSTRUCTURE
1	RES1	1	GROUP	1 ****	RES
