# created with PyMOL 2.5.2
@<TRIPOS>MOLECULE
EGFR_4W9H_E3ligase
33 35 1                 
SMALL
USER_CHARGES
@<TRIPOS>ATOM
1	  S1	15.496	51.394	82.200	S.2	1	RES1	0.000	
2	  O3	12.444	56.285	94.657	O.2	1	RES1	0.000	
3	  O4	10.633	53.656	91.441	O.2	1	RES1	0.000	
4	  O5	14.103	56.752	90.130	O.3	1	RES1	0.000	
5	  O6	12.326	51.872	89.295	O.2	1	RES1	0.000	
6	  N7	11.093	54.492	94.002	N.pl3	1	RES1	0.000	
7	  N8	12.806	54.107	90.881	N.pl3	1	RES1	0.000	
8	  N9	11.198	53.078	87.683	N.pl3	1	RES1	0.000	
9	 N10	14.584	50.318	80.025	N.2	1	RES1	0.000	
10	 C30	10.133	56.341	95.248	C.3	1	RES1	0.000	
11	 C31	11.354	55.712	94.631	C.2	1	RES1	0.000	
12	 C32	12.137	53.745	93.327	C.3	1	RES1	0.000	
13	 C33	11.748	53.845	91.780	C.2	1	RES1	0.000	
14	 C34	14.159	54.545	91.189	C.3	1	RES1	0.000	
15	 C35	14.550	55.402	89.973	C.3	1	RES1	0.000	
16	 C36	13.776	54.733	88.851	C.3	1	RES1	0.000	
17	 C37	12.493	54.250	89.443	C.3	1	RES1	0.000	
18	 C38	12.062	52.921	88.767	C.2	1	RES1	0.000	
19	 C39	10.663	51.945	86.949	C.3	1	RES1	0.000	
20	 C40	11.465	51.708	85.669	C.2	1	RES1	0.000	
21	 C41	12.282	52.694	85.140	C.2	1	RES1	0.000	
22	 C42	13.020	52.480	84.008	C.2	1	RES1	0.000	
23	 C43	12.945	51.246	83.323	C.2	1	RES1	0.000	
24	 C44	13.804	50.991	82.136	C.2	1	RES1	0.000	
25	 C45	13.510	50.421	80.894	C.2	1	RES1	0.000	
26	 C46	12.196	49.975	80.390	C.3	1	RES1	0.000	
27	 C47	15.673	50.768	80.632	C.2	1	RES1	0.000	
28	 C48	12.148	50.253	83.865	C.2	1	RES1	0.000	
29	 C49	11.388	50.453	85.024	C.2	1	RES1	0.000	
30	 C50	12.268	52.292	93.854	C.3	1	RES1	0.000	
31	 C51	13.252	51.432	93.040	C.3	1	RES1	0.000	
32	 C52	12.762	52.281	95.335	C.3	1	RES1	0.000	
33	 C53	10.894	51.602	93.819	C.3	1	RES1	0.000	
@<TRIPOS>BOND
1 1 24 ar
2 1 27 ar
3 2 11 2
4 9 25 ar
5 9 27 ar
6 10 11 1
7 6 11 1
8 6 12 1
9 12 13 1
10 12 30 1
11 3 13 2
12 7 13 1
13 7 14 1
14 14 15 1
15 4 15 1
16 15 16 1
17 16 17 1
18 7 17 1
19 17 18 1
20 5 18 2
21 8 18 1
22 8 19 1
23 19 20 1
24 20 21 ar
25 20 29 ar
26 21 22 ar
27 22 23 ar
28 23 24 1
29 23 28 ar
30 24 25 ar
31 25 26 1
32 28 29 ar
33 30 31 1
34 30 32 1
35 30 33 1
@<TRIPOS>SUBSTRUCTURE
1	RES1	1	GROUP	1 ****	RES
