# created with PyMOL 2.5.2
@<TRIPOS>MOLECULE
EGFR_4W9H_E3ligase
33 35 1                 
SMALL
USER_CHARGES
@<TRIPOS>ATOM
1	  S1	15.491	51.539	82.160	S.2	1	RES1	0.000	
2	  O3	12.441	56.293	94.679	O.2	1	RES1	0.000	
3	  O4	10.513	53.698	91.469	O.2	1	RES1	0.000	
4	  O5	14.060	56.668	90.275	O.3	1	RES1	0.000	
5	  O6	12.460	51.771	89.109	O.2	1	RES1	0.000	
6	  N7	11.067	54.560	94.059	N.pl3	1	RES1	0.000	
7	  N8	12.720	54.024	90.901	N.pl3	1	RES1	0.000	
8	  N9	11.190	53.018	87.676	N.pl3	1	RES1	0.000	
9	 N10	14.649	50.416	80.012	N.2	1	RES1	0.000	
10	 C28	10.120	56.413	95.299	C.3	1	RES1	0.000	
11	 C29	11.331	55.775	94.667	C.2	1	RES1	0.000	
12	 C30	12.084	53.817	93.317	C.3	1	RES1	0.000	
13	 C31	11.682	53.863	91.815	C.2	1	RES1	0.000	
14	 C32	14.097	54.419	91.183	C.3	1	RES1	0.000	
15	 C33	14.492	55.305	90.048	C.3	1	RES1	0.000	
16	 C34	13.761	54.736	88.850	C.3	1	RES1	0.000	
17	 C35	12.466	54.205	89.461	C.3	1	RES1	0.000	
18	 C36	12.025	52.878	88.768	C.2	1	RES1	0.000	
19	 C37	10.693	51.893	86.914	C.3	1	RES1	0.000	
20	 C38	11.495	51.668	85.648	C.2	1	RES1	0.000	
21	 C39	11.408	50.465	84.962	C.2	1	RES1	0.000	
22	 C40	12.158	50.229	83.806	C.2	1	RES1	0.000	
23	 C41	12.991	51.240	83.303	C.2	1	RES1	0.000	
24	 C42	13.855	50.978	82.106	C.2	1	RES1	0.000	
25	 C43	13.609	50.413	80.905	C.2	1	RES1	0.000	
26	 C44	12.314	49.774	80.449	C.3	1	RES1	0.000	
27	 C45	15.705	50.967	80.549	C.2	1	RES1	0.000	
28	 C46	13.078	52.446	84.023	C.2	1	RES1	0.000	
29	 C47	12.351	52.655	85.149	C.2	1	RES1	0.000	
30	 C48	12.215	52.354	93.865	C.3	1	RES1	0.000	
31	 C49	13.269	51.543	93.059	C.3	1	RES1	0.000	
32	 C50	12.682	52.370	95.346	C.3	1	RES1	0.000	
33	 C51	10.898	51.618	93.799	C.3	1	RES1	0.000	
@<TRIPOS>BOND
1 1 24 ar
2 1 27 ar
3 9 25 ar
4 9 27 ar
5 10 11 1
6 2 11 2
7 6 11 1
8 6 12 1
9 12 13 1
10 12 30 1
11 3 13 2
12 7 13 1
13 7 14 1
14 14 15 1
15 4 15 1
16 15 16 1
17 16 17 1
18 7 17 1
19 17 18 1
20 5 18 2
21 8 18 1
22 8 19 1
23 19 20 1
24 20 21 ar
25 20 29 ar
26 21 22 ar
27 22 23 ar
28 23 24 1
29 23 28 ar
30 24 25 ar
31 25 26 1
32 28 29 ar
33 30 31 1
34 30 32 1
35 30 33 1
@<TRIPOS>SUBSTRUCTURE
1	RES1	1	GROUP	1 ****	RES
