# created with PyMOL 2.5.2
@<TRIPOS>MOLECULE
EGFR_4W9H_E3ligase
33 35 1                 
SMALL
USER_CHARGES
@<TRIPOS>ATOM
1	  S1	15.516	51.536	82.140	S.2	1	RES1	0.000	
2	  O3	12.334	56.336	94.706	O.2	1	RES1	0.000	
3	  O4	10.553	53.732	91.401	O.2	1	RES1	0.000	
4	  O5	14.171	56.642	90.205	O.3	1	RES1	0.000	
5	  O6	12.370	51.766	89.276	O.2	1	RES1	0.000	
6	  N7	11.029	54.564	93.983	N.pl3	1	RES1	0.000	
7	  N8	12.771	54.050	90.869	N.pl3	1	RES1	0.000	
8	  N9	11.209	53.033	87.732	N.pl3	1	RES1	0.000	
9	 N10	14.573	50.425	80.018	N.2	1	RES1	0.000	
10	 C28	10.002	56.325	95.259	C.3	1	RES1	0.000	
11	 C29	11.255	55.757	94.629	C.2	1	RES1	0.000	
12	 C30	12.079	53.816	93.268	C.3	1	RES1	0.000	
13	 C31	11.725	53.875	91.755	C.2	1	RES1	0.000	
14	 C32	14.133	54.419	91.162	C.3	1	RES1	0.000	
15	 C33	14.559	55.275	89.996	C.3	1	RES1	0.000	
16	 C34	13.832	54.671	88.816	C.3	1	RES1	0.000	
17	 C35	12.503	54.231	89.439	C.3	1	RES1	0.000	
18	 C36	12.039	52.873	88.806	C.2	1	RES1	0.000	
19	 C37	10.694	51.887	86.968	C.3	1	RES1	0.000	
20	 C38	11.511	51.621	85.715	C.2	1	RES1	0.000	
21	 C39	12.357	52.643	85.229	C.2	1	RES1	0.000	
22	 C40	13.110	52.422	84.080	C.2	1	RES1	0.000	
23	 C41	13.031	51.207	83.383	C.2	1	RES1	0.000	
24	 C42	13.845	51.008	82.178	C.2	1	RES1	0.000	
25	 C43	13.519	50.464	80.906	C.2	1	RES1	0.000	
26	 C44	12.220	49.950	80.446	C.3	1	RES1	0.000	
27	 C45	15.645	50.976	80.541	C.2	1	RES1	0.000	
28	 C46	12.230	50.223	83.923	C.2	1	RES1	0.000	
29	 C47	11.473	50.407	85.050	C.2	1	RES1	0.000	
30	 C48	12.219	52.345	93.790	C.3	1	RES1	0.000	
31	 C49	13.312	51.616	92.998	C.3	1	RES1	0.000	
32	 C50	12.647	52.371	95.282	C.3	1	RES1	0.000	
33	 C51	10.907	51.551	93.695	C.3	1	RES1	0.000	
@<TRIPOS>BOND
1 1 24 ar
2 1 27 ar
3 9 25 ar
4 9 27 ar
5 10 11 1
6 2 11 2
7 6 11 1
8 6 12 1
9 12 13 1
10 12 30 1
11 3 13 2
12 7 13 1
13 7 14 1
14 14 15 1
15 4 15 1
16 15 16 1
17 16 17 1
18 7 17 1
19 17 18 1
20 5 18 2
21 8 18 1
22 8 19 1
23 19 20 1
24 20 21 ar
25 20 29 ar
26 21 22 ar
27 22 23 ar
28 23 24 1
29 23 28 ar
30 24 25 ar
31 25 26 1
32 28 29 ar
33 30 31 1
34 30 32 1
35 30 33 1
@<TRIPOS>SUBSTRUCTURE
1	RES1	1	GROUP	1 ****	RES
