# created with PyMOL 2.5.2
@<TRIPOS>MOLECULE
CRBN_6H0G_E3ligase
20 22 1                 
SMALL
USER_CHARGES
@<TRIPOS>ATOM
1	  C1	3.387	50.714	-78.357	C.2	1	RES1	0.000	
2	  N1	1.704	51.029	-82.300	N.2	1	RES1	0.000	
3	  O1	3.874	50.745	-77.243	O.2	1	RES1	0.000	
4	  C2	3.999	49.887	-79.478	C.3	1	RES1	0.000	
5	  N2	1.651	54.699	-84.743	N.pl3	1	RES1	0.000	
6	  O2	0.684	49.099	-83.126	O.2	1	RES1	0.000	
7	  C3	3.653	50.459	-80.849	C.3	1	RES1	0.000	
8	  C4	2.143	50.540	-81.008	C.3	1	RES1	0.000	
9	  C5	1.020	50.245	-83.224	C.2	1	RES1	0.000	
10	  C6	0.719	51.133	-84.372	C.2	1	RES1	0.000	
11	  N6	2.230	51.374	-78.693	N.pl3	1	RES1	0.000	
12	  C7	0.092	50.815	-85.555	C.2	1	RES1	0.000	
13	  C8	-0.013	51.852	-86.492	C.2	1	RES1	0.000	
14	  O8	2.323	53.295	-82.210	O.2	1	RES1	0.000	
15	  C9	0.479	53.125	-86.220	C.2	1	RES1	0.000	
16	  O9	0.483	52.009	-79.993	O.2	1	RES1	0.000	
17	 C10	1.106	53.428	-84.976	C.2	1	RES1	0.000	
18	 C28	1.225	52.382	-84.102	C.2	1	RES1	0.000	
19	 C29	1.821	52.333	-82.756	C.2	1	RES1	0.000	
20	 C30	1.543	51.431	-79.870	C.2	1	RES1	0.000	
@<TRIPOS>BOND
1 1 4 1
2 1 11 1
3 2 8 1
4 2 9 ar
5 2 19 ar
6 1 3 2
7 4 7 1
8 6 9 2
9 7 8 1
10 9 10 ar
11 10 12 ar
12 12 13 ar
13 13 15 ar
14 5 17 1
15 15 17 ar
16 17 18 ar
17 10 18 ar
18 18 19 ar
19 14 19 2
20 8 20 1
21 11 20 1
22 16 20 2
@<TRIPOS>SUBSTRUCTURE
1	RES1	1	GROUP	1 ****	RES
