# created with PyMOL 2.5.2
@<TRIPOS>MOLECULE
EGFR_4W9H_E3ligase
33 35 1                 
SMALL
USER_CHARGES
@<TRIPOS>ATOM
1	  S1	15.535	51.425	82.170	S.2	1	RES1	0.000	
2	  O3	12.472	56.269	94.703	O.2	1	RES1	0.000	
3	  O4	10.597	53.728	91.453	O.2	1	RES1	0.000	
4	  O5	14.106	56.648	89.937	O.3	1	RES1	0.000	
5	  O6	12.243	51.756	89.246	O.2	1	RES1	0.000	
6	  N7	11.094	54.539	94.032	N.pl3	1	RES1	0.000	
7	  N8	12.757	54.059	90.878	N.pl3	1	RES1	0.000	
8	  N9	11.148	53.044	87.701	N.pl3	1	RES1	0.000	
9	 N10	14.547	50.405	80.030	N.2	1	RES1	0.000	
10	 C26	10.140	56.357	95.260	C.3	1	RES1	0.000	
11	 C27	11.376	55.747	94.659	C.2	1	RES1	0.000	
12	 C28	12.138	53.767	93.288	C.3	1	RES1	0.000	
13	 C29	11.761	53.848	91.778	C.2	1	RES1	0.000	
14	 C30	14.121	54.519	91.118	C.3	1	RES1	0.000	
15	 C31	14.543	55.290	89.897	C.3	1	RES1	0.000	
16	 C32	13.781	54.565	88.765	C.3	1	RES1	0.000	
17	 C33	12.464	54.166	89.459	C.3	1	RES1	0.000	
18	 C34	11.980	52.859	88.787	C.2	1	RES1	0.000	
19	 C35	10.623	51.946	86.912	C.3	1	RES1	0.000	
20	 C36	11.444	51.727	85.668	C.2	1	RES1	0.000	
21	 C37	11.369	50.515	84.975	C.2	1	RES1	0.000	
22	 C38	12.161	50.294	83.854	C.2	1	RES1	0.000	
23	 C39	13.061	51.261	83.371	C.2	1	RES1	0.000	
24	 C40	13.877	51.020	82.180	C.2	1	RES1	0.000	
25	 C41	13.508	50.466	80.962	C.2	1	RES1	0.000	
26	 C42	12.196	49.919	80.547	C.3	1	RES1	0.000	
27	 C43	15.649	50.873	80.530	C.2	1	RES1	0.000	
28	 C44	13.114	52.460	84.080	C.2	1	RES1	0.000	
29	 C45	12.348	52.730	85.195	C.2	1	RES1	0.000	
30	 C46	12.281	52.301	93.867	C.3	1	RES1	0.000	
31	 C47	13.248	51.450	93.066	C.3	1	RES1	0.000	
32	 C48	12.776	52.424	95.343	C.3	1	RES1	0.000	
33	 C49	10.912	51.628	93.916	C.3	1	RES1	0.000	
@<TRIPOS>BOND
1 1 24 ar
2 1 27 ar
3 9 25 ar
4 9 27 ar
5 10 11 1
6 2 11 2
7 6 11 1
8 6 12 1
9 12 13 1
10 12 30 1
11 3 13 2
12 7 13 1
13 7 14 1
14 14 15 1
15 4 15 1
16 15 16 1
17 16 17 1
18 7 17 1
19 17 18 1
20 5 18 2
21 8 18 1
22 8 19 1
23 19 20 1
24 20 21 ar
25 20 29 ar
26 21 22 ar
27 22 23 ar
28 23 24 1
29 23 28 ar
30 24 25 ar
31 25 26 1
32 28 29 ar
33 30 31 1
34 30 32 1
35 30 33 1
@<TRIPOS>SUBSTRUCTURE
1	RES1	1	GROUP	1 ****	RES
