# created with PyMOL 2.5.2
@<TRIPOS>MOLECULE
EGFR_4W9H_E3ligase
33 35 1                 
SMALL
USER_CHARGES
@<TRIPOS>ATOM
1	  S1	15.482	51.409	82.181	S.2	1	RES1	0.000	
2	  O3	12.441	56.255	94.689	O.2	1	RES1	0.000	
3	  O4	10.622	53.680	91.431	O.2	1	RES1	0.000	
4	  O5	14.133	56.730	90.120	O.3	1	RES1	0.000	
5	  O6	12.347	51.829	89.257	O.2	1	RES1	0.000	
6	  N7	11.087	54.505	94.003	N.pl3	1	RES1	0.000	
7	  N8	12.785	54.094	90.888	N.pl3	1	RES1	0.000	
8	  N9	11.208	53.087	87.705	N.pl3	1	RES1	0.000	
9	 N10	14.580	50.289	80.038	N.2	1	RES1	0.000	
10	 C26	10.135	56.341	95.262	C.3	1	RES1	0.000	
11	 C27	11.352	55.739	94.639	C.2	1	RES1	0.000	
12	 C28	12.127	53.749	93.306	C.3	1	RES1	0.000	
13	 C29	11.765	53.832	91.822	C.2	1	RES1	0.000	
14	 C30	14.127	54.546	91.173	C.3	1	RES1	0.000	
15	 C31	14.541	55.356	89.984	C.3	1	RES1	0.000	
16	 C32	13.780	54.711	88.821	C.3	1	RES1	0.000	
17	 C33	12.473	54.224	89.455	C.3	1	RES1	0.000	
18	 C34	12.052	52.915	88.772	C.2	1	RES1	0.000	
19	 C35	10.673	51.959	86.925	C.3	1	RES1	0.000	
20	 C36	11.436	51.738	85.671	C.2	1	RES1	0.000	
21	 C37	12.271	52.731	85.146	C.2	1	RES1	0.000	
22	 C38	13.026	52.507	84.006	C.2	1	RES1	0.000	
23	 C39	12.966	51.248	83.327	C.2	1	RES1	0.000	
24	 C40	13.806	50.994	82.159	C.2	1	RES1	0.000	
25	 C41	13.512	50.405	80.916	C.2	1	RES1	0.000	
26	 C42	12.200	49.908	80.397	C.3	1	RES1	0.000	
27	 C43	15.678	50.798	80.603	C.2	1	RES1	0.000	
28	 C44	12.163	50.272	83.863	C.2	1	RES1	0.000	
29	 C45	11.400	50.481	85.030	C.2	1	RES1	0.000	
30	 C46	12.275	52.303	93.855	C.3	1	RES1	0.000	
31	 C47	13.238	51.435	93.027	C.3	1	RES1	0.000	
32	 C48	12.782	52.331	95.281	C.3	1	RES1	0.000	
33	 C49	10.907	51.602	93.867	C.3	1	RES1	0.000	
@<TRIPOS>BOND
1 1 24 ar
2 1 27 ar
3 9 25 ar
4 9 27 ar
5 10 11 1
6 2 11 2
7 6 11 1
8 6 12 1
9 12 13 1
10 12 30 1
11 3 13 2
12 7 13 1
13 7 14 1
14 14 15 1
15 4 15 1
16 15 16 1
17 16 17 1
18 7 17 1
19 17 18 1
20 5 18 2
21 8 18 1
22 8 19 1
23 19 20 1
24 20 21 ar
25 20 29 ar
26 21 22 ar
27 22 23 ar
28 23 24 1
29 23 28 ar
30 24 25 ar
31 25 26 1
32 28 29 ar
33 30 31 1
34 30 32 1
35 30 33 1
@<TRIPOS>SUBSTRUCTURE
1	RES1	1	GROUP	1 ****	RES
