# created with PyMOL 2.5.2
@<TRIPOS>MOLECULE
EGFR_4W9H_E3ligase
33 35 1                 
SMALL
USER_CHARGES
@<TRIPOS>ATOM
1	  S1	15.468	51.473	82.158	S.2	1	RES1	0.000	
2	  O3	12.401	56.273	94.654	O.2	1	RES1	0.000	
3	  O4	10.654	53.661	91.455	O.2	1	RES1	0.000	
4	  O5	14.086	56.725	90.040	O.3	1	RES1	0.000	
5	  O6	12.319	51.807	89.247	O.2	1	RES1	0.000	
6	  N7	11.091	54.518	94.013	N.pl3	1	RES1	0.000	
7	  N8	12.816	54.093	90.893	N.pl3	1	RES1	0.000	
8	  N9	11.241	53.105	87.677	N.pl3	1	RES1	0.000	
9	 N10	14.576	50.287	80.056	N.2	1	RES1	0.000	
10	 C24	10.077	56.303	95.262	C.3	1	RES1	0.000	
11	 C25	11.311	55.719	94.649	C.2	1	RES1	0.000	
12	 C26	12.144	53.743	93.337	C.3	1	RES1	0.000	
13	 C27	11.795	53.829	91.807	C.2	1	RES1	0.000	
14	 C28	14.123	54.594	91.189	C.3	1	RES1	0.000	
15	 C29	14.540	55.378	89.942	C.3	1	RES1	0.000	
16	 C30	13.820	54.667	88.825	C.3	1	RES1	0.000	
17	 C31	12.534	54.208	89.460	C.3	1	RES1	0.000	
18	 C32	12.070	52.904	88.776	C.2	1	RES1	0.000	
19	 C33	10.668	52.015	86.934	C.3	1	RES1	0.000	
20	 C34	11.451	51.770	85.659	C.2	1	RES1	0.000	
21	 C35	11.320	50.540	84.989	C.2	1	RES1	0.000	
22	 C36	12.086	50.302	83.850	C.2	1	RES1	0.000	
23	 C37	12.963	51.264	83.338	C.2	1	RES1	0.000	
24	 C38	13.806	50.990	82.164	C.2	1	RES1	0.000	
25	 C39	13.520	50.381	80.939	C.2	1	RES1	0.000	
26	 C40	12.199	49.868	80.484	C.3	1	RES1	0.000	
27	 C41	15.650	50.785	80.611	C.2	1	RES1	0.000	
28	 C42	13.092	52.469	84.005	C.2	1	RES1	0.000	
29	 C43	12.340	52.725	85.170	C.2	1	RES1	0.000	
30	 C44	12.284	52.298	93.858	C.3	1	RES1	0.000	
31	 C45	13.256	51.446	93.024	C.3	1	RES1	0.000	
32	 C46	12.752	52.284	95.335	C.3	1	RES1	0.000	
33	 C47	10.918	51.584	93.836	C.3	1	RES1	0.000	
@<TRIPOS>BOND
1 1 24 ar
2 1 27 ar
3 9 25 ar
4 9 27 ar
5 10 11 1
6 2 11 2
7 6 11 1
8 6 12 1
9 12 13 1
10 12 30 1
11 3 13 2
12 7 13 1
13 7 14 1
14 14 15 1
15 4 15 1
16 15 16 1
17 16 17 1
18 7 17 1
19 17 18 1
20 5 18 2
21 8 18 1
22 8 19 1
23 19 20 1
24 20 21 ar
25 20 29 ar
26 21 22 ar
27 22 23 ar
28 23 24 1
29 23 28 ar
30 24 25 ar
31 25 26 1
32 28 29 ar
33 30 31 1
34 30 32 1
35 30 33 1
@<TRIPOS>SUBSTRUCTURE
1	RES1	1	GROUP	1 ****	RES
