# created with PyMOL 2.5.2
@<TRIPOS>MOLECULE
EGFR_4W9H_E3ligase
33 35 1                 
SMALL
USER_CHARGES
@<TRIPOS>ATOM
1	  S1	15.463	51.541	82.158	S.2	1	RES1	0.000	
2	  O3	12.280	56.325	94.716	O.2	1	RES1	0.000	
3	  O4	10.566	53.731	91.411	O.2	1	RES1	0.000	
4	  O5	14.195	56.616	90.219	O.3	1	RES1	0.000	
5	  O6	12.321	51.785	89.269	O.2	1	RES1	0.000	
6	  N7	11.020	54.546	93.984	N.pl3	1	RES1	0.000	
7	  N8	12.768	54.051	90.872	N.pl3	1	RES1	0.000	
8	  N9	11.227	53.037	87.737	N.pl3	1	RES1	0.000	
9	 N10	14.633	50.406	80.021	N.2	1	RES1	0.000	
10	 C24	9.962	56.297	95.274	C.3	1	RES1	0.000	
11	 C25	11.239	55.762	94.639	C.2	1	RES1	0.000	
12	 C26	12.065	53.819	93.275	C.3	1	RES1	0.000	
13	 C27	11.722	53.857	91.773	C.2	1	RES1	0.000	
14	 C28	14.140	54.419	91.183	C.3	1	RES1	0.000	
15	 C29	14.592	55.270	90.014	C.3	1	RES1	0.000	
16	 C30	13.820	54.665	88.833	C.3	1	RES1	0.000	
17	 C31	12.499	54.201	89.441	C.3	1	RES1	0.000	
18	 C32	12.055	52.868	88.805	C.2	1	RES1	0.000	
19	 C33	10.710	51.930	86.960	C.3	1	RES1	0.000	
20	 C34	11.509	51.678	85.684	C.2	1	RES1	0.000	
21	 C35	11.417	50.469	85.005	C.2	1	RES1	0.000	
22	 C36	12.157	50.229	83.870	C.2	1	RES1	0.000	
23	 C37	12.985	51.218	83.340	C.2	1	RES1	0.000	
24	 C38	13.805	51.003	82.145	C.2	1	RES1	0.000	
25	 C39	13.546	50.430	80.894	C.2	1	RES1	0.000	
26	 C40	12.267	49.856	80.424	C.3	1	RES1	0.000	
27	 C41	15.686	50.953	80.589	C.2	1	RES1	0.000	
28	 C42	13.100	52.436	84.048	C.2	1	RES1	0.000	
29	 C43	12.379	52.667	85.201	C.2	1	RES1	0.000	
30	 C44	12.254	52.377	93.822	C.3	1	RES1	0.000	
31	 C45	13.335	51.633	93.001	C.3	1	RES1	0.000	
32	 C46	12.718	52.395	95.275	C.3	1	RES1	0.000	
33	 C47	10.936	51.541	93.757	C.3	1	RES1	0.000	
@<TRIPOS>BOND
1 1 24 ar
2 1 27 ar
3 9 25 ar
4 9 27 ar
5 10 11 1
6 2 11 2
7 6 11 1
8 6 12 1
9 12 13 1
10 12 30 1
11 3 13 2
12 7 13 1
13 7 14 1
14 14 15 1
15 4 15 1
16 15 16 1
17 16 17 1
18 7 17 1
19 17 18 1
20 5 18 2
21 8 18 1
22 8 19 1
23 19 20 1
24 20 21 ar
25 20 29 ar
26 21 22 ar
27 22 23 ar
28 23 24 1
29 23 28 ar
30 24 25 ar
31 25 26 1
32 28 29 ar
33 30 31 1
34 30 32 1
35 30 33 1
@<TRIPOS>SUBSTRUCTURE
1	RES1	1	GROUP	1 ****	RES
