# created with PyMOL 2.5.2
@<TRIPOS>MOLECULE
PDE_5NVV_E3ligase
34 36 1                 
SMALL
USER_CHARGES
@<TRIPOS>ATOM
1	  C1	12.965	49.903	80.789	C.3	1	RES1	0.000	
2	  N1	11.234	52.811	87.917	N.pl3	1	RES1	0.000	
3	  O1	12.807	51.877	89.309	O.2	1	RES1	0.000	
4	  C2	14.121	50.737	81.207	C.2	1	RES1	0.000	
5	  N2	12.651	54.159	91.007	N.pl3	1	RES1	0.000	
6	  O2	15.703	55.498	89.761	O.3	1	RES1	0.000	
7	  C3	14.346	51.349	82.437	C.2	1	RES1	0.000	
8	  N3	11.477	54.626	94.374	N.pl3	1	RES1	0.000	
9	  O3	10.603	53.822	91.939	O.2	1	RES1	0.000	
10	  S3	15.852	52.195	82.367	S.2	1	RES1	0.000	
11	  C4	13.543	51.402	83.637	C.2	1	RES1	0.000	
12	  O4	12.718	56.569	94.595	O.2	1	RES1	0.000	
13	  C5	13.338	52.606	84.336	C.2	1	RES1	0.000	
14	  O5	10.855	57.736	96.213	O.3	1	RES1	0.000	
15	  C6	12.549	52.664	85.468	C.2	1	RES1	0.000	
16	  C7	11.871	51.533	85.933	C.2	1	RES1	0.000	
17	  C8	10.992	51.594	87.155	C.3	1	RES1	0.000	
18	  N8	15.110	50.937	80.244	N.2	1	RES1	0.000	
19	  C9	12.162	52.850	88.957	C.2	1	RES1	0.000	
20	 C10	12.306	54.265	89.567	C.3	1	RES1	0.000	
21	 C11	13.477	54.990	88.957	C.3	1	RES1	0.000	
22	 C12	14.680	54.535	89.786	C.3	1	RES1	0.000	
23	 C13	14.075	54.383	91.191	C.3	1	RES1	0.000	
24	 C14	11.801	53.939	92.111	C.2	1	RES1	0.000	
25	 C15	12.435	53.917	93.513	C.3	1	RES1	0.000	
26	 C16	11.713	55.895	94.847	C.2	1	RES1	0.000	
27	 C17	10.577	56.464	95.698	C.3	1	RES1	0.000	
28	 C58	12.754	52.451	93.980	C.3	1	RES1	0.000	
29	 C59	11.480	51.663	94.301	C.3	1	RES1	0.000	
30	 C60	13.643	52.492	95.255	C.3	1	RES1	0.000	
31	 C61	13.543	51.689	92.902	C.3	1	RES1	0.000	
32	 C62	12.054	50.329	85.227	C.2	1	RES1	0.000	
33	 C63	12.848	50.266	84.093	C.2	1	RES1	0.000	
34	 C64	16.069	51.718	80.749	C.2	1	RES1	0.000	
@<TRIPOS>BOND
1 1 4 1
2 2 17 1
3 2 19 1
4 3 19 2
5 4 7 ar
6 4 18 ar
7 7 10 ar
8 7 11 1
9 10 34 ar
10 11 13 ar
11 11 33 ar
12 13 15 ar
13 15 16 ar
14 16 17 1
15 5 20 1
16 19 20 1
17 20 21 1
18 21 22 1
19 6 22 1
20 22 23 1
21 5 23 1
22 5 24 1
23 9 24 2
24 24 25 1
25 8 25 1
26 25 28 1
27 8 26 1
28 12 26 2
29 26 27 1
30 14 27 1
31 28 29 1
32 28 30 1
33 28 31 1
34 16 32 ar
35 32 33 ar
36 18 34 ar
@<TRIPOS>SUBSTRUCTURE
1	RES1	1	GROUP	1 ****	RES
