# created with PyMOL 2.5.2
@<TRIPOS>MOLECULE
CDK6_4W9H_E3ligase
34 36 1                 
SMALL
USER_CHARGES
@<TRIPOS>ATOM
1	  S1	15.558	51.623	82.106	S.2	1	RES1	0.000	
2	  O2	12.450	56.440	94.591	O.2	1	RES1	0.000	
3	  O3	10.392	53.763	91.624	O.2	1	RES1	0.000	
4	  O4	14.283	56.425	90.266	O.3	1	RES1	0.000	
5	  N5	11.116	54.629	94.071	N.pl3	1	RES1	0.000	
6	  O5	12.258	51.746	89.199	O.2	1	RES1	0.000	
7	  N6	12.512	54.066	90.834	N.pl3	1	RES1	0.000	
8	  N7	11.090	52.986	87.642	N.pl3	1	RES1	0.000	
9	  N8	14.658	50.455	79.993	N.2	1	RES1	0.000	
10	 C21	10.199	56.435	95.397	C.3	1	RES1	0.000	
11	 C22	11.381	55.858	94.659	C.2	1	RES1	0.000	
12	 C23	12.092	53.875	93.300	C.3	1	RES1	0.000	
13	 C24	11.559	53.904	91.853	C.2	1	RES1	0.000	
14	 C25	13.927	54.178	91.163	C.3	1	RES1	0.000	
15	 C26	14.487	55.019	90.009	C.3	1	RES1	0.000	
16	 C27	13.675	54.545	88.806	C.3	1	RES1	0.000	
17	 C28	12.315	54.171	89.391	C.3	1	RES1	0.000	
18	 C29	11.887	52.817	88.761	C.2	1	RES1	0.000	
19	 C30	10.608	51.853	86.880	C.3	1	RES1	0.000	
20	 C31	9.127	52.038	86.480	C.3	1	RES1	0.000	
21	 C32	11.512	51.607	85.650	C.2	1	RES1	0.000	
22	 C33	11.511	50.404	84.951	C.2	1	RES1	0.000	
23	 C34	12.321	50.208	83.854	C.2	1	RES1	0.000	
24	 C35	13.120	51.247	83.338	C.2	1	RES1	0.000	
25	 C36	13.930	51.059	82.159	C.2	1	RES1	0.000	
26	 C37	13.627	50.487	80.924	C.2	1	RES1	0.000	
27	 C38	12.300	49.918	80.487	C.3	1	RES1	0.000	
28	 C39	15.703	51.010	80.513	C.2	1	RES1	0.000	
29	 C40	13.098	52.474	84.032	C.2	1	RES1	0.000	
30	 C41	12.289	52.655	85.157	C.2	1	RES1	0.000	
31	 C42	12.311	52.432	93.854	C.3	1	RES1	0.000	
32	 C43	13.320	51.660	92.985	C.3	1	RES1	0.000	
33	 C44	12.874	52.467	95.276	C.3	1	RES1	0.000	
34	 C45	11.009	51.593	93.908	C.3	1	RES1	0.000	
@<TRIPOS>BOND
1 1 25 ar
2 1 28 ar
3 2 11 2
4 10 11 1
5 5 11 1
6 5 12 1
7 12 13 1
8 12 31 1
9 3 13 2
10 7 13 1
11 7 14 1
12 14 15 1
13 4 15 1
14 15 16 1
15 16 17 1
16 7 17 1
17 17 18 1
18 6 18 2
19 8 18 1
20 8 19 1
21 19 20 1
22 19 21 1
23 21 22 ar
24 21 30 ar
25 22 23 ar
26 23 24 ar
27 24 25 1
28 24 29 ar
29 25 26 ar
30 9 26 ar
31 26 27 1
32 9 28 ar
33 29 30 ar
34 31 32 1
35 31 33 1
36 31 34 1
@<TRIPOS>SUBSTRUCTURE
1	RES1	1	GROUP	1 ****	RES
