# created with PyMOL 2.5.2
@<TRIPOS>MOLECULE
CDK6_5NVV_E3ligase
35 37 1                 
SMALL
USER_CHARGES
@<TRIPOS>ATOM
1	  S1	15.915	51.522	82.282	S.2	1	RES1	0.000	
2	  O4	10.308	57.330	96.202	O.3	1	RES1	0.000	
3	  N5	11.348	54.388	94.185	N.pl3	1	RES1	0.000	
4	  O5	12.490	56.305	94.850	O.2	1	RES1	0.000	
5	  N6	13.127	54.222	91.061	N.pl3	1	RES1	0.000	
6	  O6	10.985	53.647	91.556	O.2	1	RES1	0.000	
7	  N7	11.642	53.221	87.918	N.pl3	1	RES1	0.000	
8	  O7	14.443	56.880	90.532	O.3	1	RES1	0.000	
9	  N8	14.956	50.367	80.214	N.2	1	RES1	0.000	
10	  O8	12.921	52.017	89.418	O.2	1	RES1	0.000	
11	 C21	10.153	56.080	95.475	C.3	1	RES1	0.000	
12	 C22	11.432	55.638	94.812	C.2	1	RES1	0.000	
13	 C23	12.467	53.766	93.463	C.3	1	RES1	0.000	
14	 C24	12.117	53.879	91.957	C.2	1	RES1	0.000	
15	 C25	14.482	54.623	91.434	C.3	1	RES1	0.000	
16	 C26	14.908	55.553	90.269	C.3	1	RES1	0.000	
17	 C27	14.158	54.991	89.086	C.3	1	RES1	0.000	
18	 C28	12.869	54.439	89.662	C.3	1	RES1	0.000	
19	 C29	12.513	53.101	88.991	C.2	1	RES1	0.000	
20	 C30	11.109	52.111	87.143	C.3	1	RES1	0.000	
21	 C31	9.598	52.153	86.942	C.3	1	RES1	0.000	
22	 C32	11.914	51.879	85.880	C.2	1	RES1	0.000	
23	 C33	12.778	52.870	85.320	C.2	1	RES1	0.000	
24	 C34	13.510	52.608	84.168	C.2	1	RES1	0.000	
25	 C35	13.428	51.397	83.518	C.2	1	RES1	0.000	
26	 C36	14.246	51.091	82.304	C.2	1	RES1	0.000	
27	 C37	13.924	50.458	81.131	C.2	1	RES1	0.000	
28	 C38	12.606	49.867	80.715	C.3	1	RES1	0.000	
29	 C39	16.037	50.897	80.714	C.2	1	RES1	0.000	
30	 C40	12.610	50.401	84.055	C.2	1	RES1	0.000	
31	 C41	11.860	50.654	85.229	C.2	1	RES1	0.000	
32	 C42	12.700	52.309	93.936	C.3	1	RES1	0.000	
33	 C43	13.244	52.283	95.381	C.3	1	RES1	0.000	
34	 C44	13.736	51.617	93.040	C.3	1	RES1	0.000	
35	 C45	11.418	51.440	93.902	C.3	1	RES1	0.000	
@<TRIPOS>BOND
1 1 26 ar
2 1 29 ar
3 2 11 1
4 11 12 1
5 3 12 1
6 4 12 2
7 3 13 1
8 13 14 1
9 13 32 1
10 5 14 1
11 6 14 2
12 5 15 1
13 15 16 1
14 8 16 1
15 16 17 1
16 17 18 1
17 5 18 1
18 18 19 1
19 7 19 1
20 10 19 2
21 7 20 1
22 20 21 1
23 20 22 1
24 22 23 ar
25 22 31 ar
26 23 24 ar
27 24 25 ar
28 25 26 1
29 25 30 ar
30 26 27 ar
31 9 27 ar
32 27 28 1
33 9 29 ar
34 30 31 ar
35 32 33 1
36 32 34 1
37 32 35 1
@<TRIPOS>SUBSTRUCTURE
1	RES1	1	GROUP	1 ****	RES
