# created with PyMOL 2.5.2
@<TRIPOS>MOLECULE
CDK6_5NVV_E3ligase
35 37 1                 
SMALL
USER_CHARGES
@<TRIPOS>ATOM
1	  S1	15.908	51.643	82.401	S.2	1	RES1	0.000	
2	  O4	10.483	57.454	96.057	O.3	1	RES1	0.000	
3	  N5	11.440	54.432	94.207	N.pl3	1	RES1	0.000	
4	  O5	12.629	56.294	94.791	O.2	1	RES1	0.000	
5	  N6	13.154	54.156	91.053	N.pl3	1	RES1	0.000	
6	  O6	10.971	53.668	91.622	O.2	1	RES1	0.000	
7	  N7	11.498	53.191	87.878	N.pl3	1	RES1	0.000	
8	  O7	14.441	56.807	90.319	O.3	1	RES1	0.000	
9	  N8	15.008	50.506	80.282	N.2	1	RES1	0.000	
10	  O8	12.722	51.912	89.323	O.2	1	RES1	0.000	
11	 C21	10.313	56.180	95.471	C.3	1	RES1	0.000	
12	 C22	11.601	55.651	94.787	C.2	1	RES1	0.000	
13	 C23	12.528	53.748	93.483	C.3	1	RES1	0.000	
14	 C24	12.147	53.858	91.984	C.2	1	RES1	0.000	
15	 C25	14.503	54.579	91.317	C.3	1	RES1	0.000	
16	 C26	14.883	55.451	90.104	C.3	1	RES1	0.000	
17	 C27	14.091	54.810	88.960	C.3	1	RES1	0.000	
18	 C28	12.812	54.296	89.610	C.3	1	RES1	0.000	
19	 C29	12.385	53.027	88.913	C.2	1	RES1	0.000	
20	 C30	10.942	52.095	87.113	C.3	1	RES1	0.000	
21	 C31	9.472	52.302	86.837	C.3	1	RES1	0.000	
22	 C32	11.778	51.878	85.862	C.2	1	RES1	0.000	
23	 C33	12.656	52.857	85.380	C.2	1	RES1	0.000	
24	 C34	13.478	52.617	84.276	C.2	1	RES1	0.000	
25	 C35	13.439	51.384	83.607	C.2	1	RES1	0.000	
26	 C36	14.269	51.135	82.427	C.2	1	RES1	0.000	
27	 C37	13.954	50.520	81.210	C.2	1	RES1	0.000	
28	 C38	12.683	49.904	80.815	C.3	1	RES1	0.000	
29	 C39	16.057	51.066	80.802	C.2	1	RES1	0.000	
30	 C40	12.533	50.416	84.079	C.2	1	RES1	0.000	
31	 C41	11.738	50.648	85.179	C.2	1	RES1	0.000	
32	 C42	12.769	52.320	93.976	C.3	1	RES1	0.000	
33	 C43	13.432	52.324	95.371	C.3	1	RES1	0.000	
34	 C44	13.664	51.470	93.029	C.3	1	RES1	0.000	
35	 C45	11.443	51.559	94.126	C.3	1	RES1	0.000	
@<TRIPOS>BOND
1 1 26 ar
2 1 29 ar
3 2 11 1
4 11 12 1
5 3 12 1
6 4 12 2
7 3 13 1
8 13 14 1
9 13 32 1
10 5 14 1
11 6 14 2
12 5 15 1
13 15 16 1
14 8 16 1
15 16 17 1
16 17 18 1
17 5 18 1
18 18 19 1
19 7 19 1
20 10 19 2
21 7 20 1
22 20 21 1
23 20 22 1
24 22 23 ar
25 22 31 ar
26 23 24 ar
27 24 25 ar
28 25 26 1
29 25 30 ar
30 26 27 ar
31 9 27 ar
32 27 28 1
33 9 29 ar
34 30 31 ar
35 32 33 1
36 32 34 1
37 32 35 1
@<TRIPOS>SUBSTRUCTURE
1	RES1	1	GROUP	1 ****	RES
