# created with PyMOL 2.5.2
@<TRIPOS>MOLECULE
CDK6_4W9H_E3ligase
34 36 1                 
SMALL
USER_CHARGES
@<TRIPOS>ATOM
1	  S1	15.497	51.459	82.097	S.2	1	RES1	0.000	
2	  N6	11.102	54.529	94.015	N.pl3	1	RES1	0.000	
3	  O6	12.433	56.301	94.649	O.2	1	RES1	0.000	
4	  N7	12.754	54.103	90.888	N.pl3	1	RES1	0.000	
5	  O7	10.596	53.629	91.465	O.2	1	RES1	0.000	
6	  N8	11.206	53.101	87.708	N.pl3	1	RES1	0.000	
7	  O8	14.128	56.693	90.088	O.3	1	RES1	0.000	
8	  N9	14.511	50.309	80.029	N.2	1	RES1	0.000	
9	  O9	12.378	51.825	89.197	O.2	1	RES1	0.000	
10	 C24	10.111	56.308	95.253	C.3	1	RES1	0.000	
11	 C25	11.352	55.705	94.631	C.2	1	RES1	0.000	
12	 C26	12.138	53.766	93.301	C.3	1	RES1	0.000	
13	 C27	11.754	53.849	91.785	C.2	1	RES1	0.000	
14	 C28	14.122	54.549	91.144	C.3	1	RES1	0.000	
15	 C29	14.557	55.340	89.949	C.3	1	RES1	0.000	
16	 C30	13.770	54.691	88.821	C.3	1	RES1	0.000	
17	 C31	12.470	54.239	89.448	C.3	1	RES1	0.000	
18	 C32	12.016	52.936	88.805	C.2	1	RES1	0.000	
19	 C33	10.650	51.993	86.935	C.3	1	RES1	0.000	
20	 C34	9.157	52.213	86.634	C.3	1	RES1	0.000	
21	 C35	11.498	51.744	85.708	C.2	1	RES1	0.000	
22	 C36	11.404	50.523	85.026	C.2	1	RES1	0.000	
23	 C37	12.162	50.267	83.882	C.2	1	RES1	0.000	
24	 C38	13.036	51.247	83.379	C.2	1	RES1	0.000	
25	 C39	13.861	50.992	82.176	C.2	1	RES1	0.000	
26	 C40	13.485	50.402	80.961	C.2	1	RES1	0.000	
27	 C41	12.155	49.893	80.548	C.3	1	RES1	0.000	
28	 C42	15.599	50.819	80.515	C.2	1	RES1	0.000	
29	 C43	13.139	52.473	84.075	C.2	1	RES1	0.000	
30	 C44	12.364	52.711	85.204	C.2	1	RES1	0.000	
31	 C45	12.257	52.265	93.839	C.3	1	RES1	0.000	
32	 C46	12.769	52.281	95.286	C.3	1	RES1	0.000	
33	 C47	13.225	51.428	92.995	C.3	1	RES1	0.000	
34	 C48	10.871	51.632	93.815	C.3	1	RES1	0.000	
@<TRIPOS>BOND
1 1 25 ar
2 1 28 ar
3 10 11 1
4 2 11 1
5 3 11 2
6 2 12 1
7 12 13 1
8 12 31 1
9 4 13 1
10 5 13 2
11 4 14 1
12 14 15 1
13 7 15 1
14 15 16 1
15 16 17 1
16 4 17 1
17 17 18 1
18 6 18 1
19 9 18 2
20 6 19 1
21 19 20 1
22 19 21 1
23 21 22 ar
24 21 30 ar
25 22 23 ar
26 23 24 ar
27 24 25 1
28 24 29 ar
29 25 26 ar
30 8 26 ar
31 26 27 1
32 8 28 ar
33 29 30 ar
34 31 32 1
35 31 33 1
36 31 34 1
@<TRIPOS>SUBSTRUCTURE
1	RES1	1	GROUP	1 ****	RES
