# created with PyMOL 2.5.2
@<TRIPOS>MOLECULE
PBRM1_5NVX_E3ligase
36 39 1                 
SMALL
USER_CHARGES
@<TRIPOS>ATOM
1	  C1	12.718	50.059	80.734	C.3	1	RES1	0.000	
2	  N1	11.428	53.145	88.015	N.pl3	1	RES1	0.000	
3	  O1	12.791	51.948	89.422	O.2	1	RES1	0.000	
4	  S1	15.839	51.860	82.509	S.2	1	RES1	0.000	
5	  C2	13.985	50.670	81.237	C.2	1	RES1	0.000	
6	  N2	13.057	54.171	91.105	N.pl3	1	RES1	0.000	
7	  O2	14.458	56.786	90.521	O.3	1	RES1	0.000	
8	  C3	14.208	51.261	82.458	C.2	1	RES1	0.000	
9	  N3	11.361	54.524	94.269	N.pl3	1	RES1	0.000	
10	  O3	10.894	53.729	91.704	O.2	1	RES1	0.000	
11	  C4	13.356	51.438	83.647	C.2	1	RES1	0.000	
12	  O4	12.562	56.375	94.932	O.2	1	RES1	0.000	
13	  C5	13.402	52.675	84.370	C.2	1	RES1	0.000	
14	  C6	12.633	52.835	85.535	C.2	1	RES1	0.000	
15	  C7	11.801	51.822	86.009	C.2	1	RES1	0.000	
16	  C8	10.970	52.011	87.223	C.3	1	RES1	0.000	
17	  C9	12.375	53.032	89.040	C.2	1	RES1	0.000	
18	  N9	15.037	50.678	80.355	N.2	1	RES1	0.000	
19	 C10	12.739	54.365	89.673	C.3	1	RES1	0.000	
20	 C11	14.030	54.932	89.061	C.3	1	RES1	0.000	
21	 C12	14.830	55.423	90.233	C.3	1	RES1	0.000	
22	 C13	14.456	54.511	91.360	C.3	1	RES1	0.000	
23	 C14	12.056	53.939	92.052	C.2	1	RES1	0.000	
24	 C15	12.444	53.845	93.531	C.3	1	RES1	0.000	
25	 C16	11.529	55.752	94.916	C.2	1	RES1	0.000	
26	 C17	10.273	56.213	95.615	C.3	1	RES1	0.000	
27	 C18	10.354	56.957	96.905	C.3	1	RES1	0.000	
28	 C19	9.934	57.693	95.673	C.3	1	RES1	0.000	
29	 C20	12.730	52.407	94.039	C.3	1	RES1	0.000	
30	 C21	11.462	51.536	93.958	C.3	1	RES1	0.000	
31	 C22	13.204	52.460	95.504	C.3	1	RES1	0.000	
32	 C23	13.831	51.742	93.189	C.3	1	RES1	0.000	
33	 C24	11.796	50.603	85.295	C.2	1	RES1	0.000	
34	 C45	12.576	50.404	84.151	C.2	1	RES1	0.000	
35	 C46	16.060	51.256	80.921	C.2	1	RES1	0.000	
36	  F1	9.154	55.386	95.452	 F	1	RES1	0.000	
@<TRIPOS>BOND
1 1 5 1
2 2 16 1
3 2 17 1
4 3 17 2
5 4 8 ar
6 4 35 ar
7 5 8 ar
8 5 18 ar
9 8 11 1
10 11 13 ar
11 11 34 ar
12 13 14 ar
13 14 15 ar
14 15 16 1
15 6 19 1
16 17 19 1
17 19 20 1
18 20 21 1
19 7 21 1
20 21 22 1
21 6 22 1
22 6 23 1
23 10 23 2
24 23 24 1
25 9 24 1
26 24 29 1
27 9 25 1
28 12 25 2
29 25 26 1
30 26 27 1
31 26 28 1
32 27 28 1
33 29 30 1
34 29 31 1
35 29 32 1
36 15 33 ar
37 33 34 ar
38 18 35 ar
39 26 36 1
@<TRIPOS>SUBSTRUCTURE
1	RES1	1	GROUP	1 ****	RES
