# created with PyMOL 2.5.2
@<TRIPOS>MOLECULE
CRBN_7BQU_E3ligase
19 21 1                 
SMALL
USER_CHARGES
@<TRIPOS>ATOM
1	  C1	26.591	19.916	16.562	C.2	1	RES1	0.000	
2	  N1	24.950	17.399	13.518	N.2	1	RES1	0.000	
3	  O1	27.122	20.683	17.345	O.2	1	RES1	0.000	
4	  C2	26.443	18.439	16.881	C.3	1	RES1	0.000	
5	  O2	26.887	17.928	12.303	O.2	1	RES1	0.000	
6	  C3	26.323	17.617	15.578	C.3	1	RES1	0.000	
7	  C4	25.127	18.155	14.751	C.3	1	RES1	0.000	
8	  N4	25.995	20.382	15.420	N.pl3	1	RES1	0.000	
9	  C5	25.812	17.377	12.428	C.2	1	RES1	0.000	
10	  C6	25.183	16.541	11.421	C.2	1	RES1	0.000	
11	  C7	25.597	16.187	10.143	C.2	1	RES1	0.000	
12	  C8	24.749	15.355	9.377	C.2	1	RES1	0.000	
13	  C9	23.490	14.952	9.892	C.2	1	RES1	0.000	
14	 C10	23.083	15.326	11.164	C.2	1	RES1	0.000	
15	 O11	22.797	16.503	13.954	O.2	1	RES1	0.000	
16	 O12	24.826	20.187	13.479	O.2	1	RES1	0.000	
17	 C30	23.938	16.147	11.896	C.2	1	RES1	0.000	
18	 C31	23.778	16.712	13.255	C.2	1	RES1	0.000	
19	 C32	25.301	19.646	14.471	C.2	1	RES1	0.000	
@<TRIPOS>BOND
1 1 4 1
2 1 8 1
3 2 7 1
4 2 9 ar
5 2 18 ar
6 1 3 2
7 4 6 1
8 5 9 2
9 6 7 1
10 9 10 ar
11 10 11 ar
12 11 12 ar
13 12 13 ar
14 13 14 ar
15 14 17 ar
16 15 18 2
17 16 19 2
18 10 17 ar
19 17 18 ar
20 7 19 1
21 8 19 1
@<TRIPOS>SUBSTRUCTURE
1	RES1	1	GROUP	1 ****	RES
