# created with PyMOL 2.5.2
@<TRIPOS>MOLECULE
PBRM1_5NVX_E3ligase
36 39 1                 
SMALL
USER_CHARGES
@<TRIPOS>ATOM
1	  C1	12.752	50.102	80.831	C.3	1	RES1	0.000	
2	  N1	11.270	53.014	88.014	N.pl3	1	RES1	0.000	
3	  O1	12.760	52.007	89.416	O.2	1	RES1	0.000	
4	  S1	15.867	51.980	82.512	S.2	1	RES1	0.000	
5	  C2	14.004	50.746	81.305	C.2	1	RES1	0.000	
6	  N2	12.854	54.305	91.099	N.pl3	1	RES1	0.000	
7	  O2	15.781	55.893	89.777	O.3	1	RES1	0.000	
8	  C3	14.253	51.364	82.519	C.2	1	RES1	0.000	
9	  N3	11.397	54.548	94.366	N.pl3	1	RES1	0.000	
10	  O3	10.759	53.770	91.874	O.2	1	RES1	0.000	
11	  C4	13.376	51.520	83.690	C.2	1	RES1	0.000	
12	  O4	12.501	56.469	94.906	O.2	1	RES1	0.000	
13	  C5	12.579	50.446	84.126	C.2	1	RES1	0.000	
14	  C6	11.787	50.568	85.282	C.2	1	RES1	0.000	
15	  C7	11.752	51.760	85.992	C.2	1	RES1	0.000	
16	  C8	10.932	51.854	87.256	C.3	1	RES1	0.000	
17	  C9	12.247	53.048	89.003	C.2	1	RES1	0.000	
18	  N9	15.082	50.753	80.404	N.2	1	RES1	0.000	
19	 C10	12.448	54.371	89.695	C.3	1	RES1	0.000	
20	 C11	13.571	55.203	89.035	C.3	1	RES1	0.000	
21	 C12	14.783	54.859	89.854	C.3	1	RES1	0.000	
22	 C13	14.229	54.728	91.283	C.3	1	RES1	0.000	
23	 C14	11.928	53.979	92.114	C.2	1	RES1	0.000	
24	 C15	12.450	53.914	93.567	C.3	1	RES1	0.000	
25	 C16	11.495	55.757	94.953	C.2	1	RES1	0.000	
26	 C17	10.251	56.218	95.686	C.3	1	RES1	0.000	
27	 C18	9.896	57.661	95.741	C.3	1	RES1	0.000	
28	 C19	10.380	56.993	96.993	C.3	1	RES1	0.000	
29	 C20	12.851	52.480	94.069	C.3	1	RES1	0.000	
30	 C21	11.598	51.620	94.233	C.3	1	RES1	0.000	
31	 C22	13.535	52.581	95.438	C.3	1	RES1	0.000	
32	 C23	13.804	51.762	93.051	C.3	1	RES1	0.000	
33	 C24	12.543	52.805	85.551	C.2	1	RES1	0.000	
34	 C48	13.347	52.680	84.437	C.2	1	RES1	0.000	
35	 C49	16.086	51.363	80.944	C.2	1	RES1	0.000	
36	  F1	9.185	55.341	95.621	 F	1	RES1	0.000	
@<TRIPOS>BOND
1 1 5 1
2 2 16 1
3 2 17 1
4 3 17 2
5 4 8 ar
6 4 35 ar
7 5 8 ar
8 5 18 ar
9 8 11 1
10 11 13 ar
11 11 34 ar
12 13 14 ar
13 14 15 ar
14 15 16 1
15 6 19 1
16 17 19 1
17 19 20 1
18 20 21 1
19 7 21 1
20 21 22 1
21 6 22 1
22 6 23 1
23 10 23 2
24 23 24 1
25 9 24 1
26 24 29 1
27 9 25 1
28 12 25 2
29 25 26 1
30 26 27 1
31 26 28 1
32 27 28 1
33 29 30 1
34 29 31 1
35 29 32 1
36 15 33 ar
37 33 34 ar
38 18 35 ar
39 26 36 1
@<TRIPOS>SUBSTRUCTURE
1	RES1	1	GROUP	1 ****	RES
