# created with PyMOL 2.5.2
@<TRIPOS>MOLECULE
PBRM1_5NVX_E3ligase
36 39 1                 
SMALL
USER_CHARGES
@<TRIPOS>ATOM
1	  C1	12.670	49.979	80.863	C.3	1	RES1	0.000	
2	  N1	11.456	53.280	87.923	N.pl3	1	RES1	0.000	
3	  O1	12.730	51.986	89.341	O.2	1	RES1	0.000	
4	  S1	15.898	51.811	82.387	S.2	1	RES1	0.000	
5	  C2	13.974	50.585	81.260	C.2	1	RES1	0.000	
6	  N2	12.945	54.214	91.088	N.pl3	1	RES1	0.000	
7	  O2	14.452	56.739	90.560	O.3	1	RES1	0.000	
8	  C3	14.272	51.214	82.461	C.2	1	RES1	0.000	
9	  N3	11.380	54.541	94.315	N.pl3	1	RES1	0.000	
10	  O3	10.815	53.691	91.809	O.2	1	RES1	0.000	
11	  C4	13.460	51.469	83.677	C.2	1	RES1	0.000	
12	  O4	12.471	56.546	94.741	O.2	1	RES1	0.000	
13	  C5	13.483	52.665	84.343	C.2	1	RES1	0.000	
14	  C6	12.680	52.894	85.462	C.2	1	RES1	0.000	
15	  C7	11.804	51.898	85.923	C.2	1	RES1	0.000	
16	  C8	10.958	52.132	87.146	C.3	1	RES1	0.000	
17	  C9	12.340	53.052	88.983	C.2	1	RES1	0.000	
18	  N9	14.980	50.531	80.347	N.2	1	RES1	0.000	
19	 C10	12.726	54.382	89.674	C.3	1	RES1	0.000	
20	 C11	14.060	54.816	89.103	C.3	1	RES1	0.000	
21	 C12	14.813	55.343	90.305	C.3	1	RES1	0.000	
22	 C13	14.330	54.453	91.444	C.3	1	RES1	0.000	
23	 C14	11.982	53.924	92.096	C.2	1	RES1	0.000	
24	 C15	12.456	53.902	93.526	C.3	1	RES1	0.000	
25	 C16	11.506	55.829	94.839	C.2	1	RES1	0.000	
26	 C17	10.244	56.306	95.529	C.3	1	RES1	0.000	
27	 C18	10.334	57.223	96.732	C.3	1	RES1	0.000	
28	 C19	9.920	55.798	96.902	C.3	1	RES1	0.000	
29	 C20	12.809	52.466	94.086	C.3	1	RES1	0.000	
30	 C21	11.617	51.529	94.134	C.3	1	RES1	0.000	
31	 C22	13.378	52.603	95.513	C.3	1	RES1	0.000	
32	 C23	13.875	51.826	93.190	C.3	1	RES1	0.000	
33	 C24	11.759	50.695	85.257	C.2	1	RES1	0.000	
34	 C48	12.567	50.467	84.122	C.2	1	RES1	0.000	
35	 C49	16.045	51.139	80.833	C.2	1	RES1	0.000	
36	  F1	9.141	56.520	94.701	 F	1	RES1	0.000	
@<TRIPOS>BOND
1 1 5 1
2 2 16 1
3 2 17 1
4 3 17 2
5 4 8 ar
6 4 35 ar
7 5 8 ar
8 5 18 ar
9 8 11 1
10 11 13 ar
11 11 34 ar
12 13 14 ar
13 14 15 ar
14 15 16 1
15 6 19 1
16 17 19 1
17 19 20 1
18 20 21 1
19 7 21 1
20 21 22 1
21 6 22 1
22 6 23 1
23 10 23 2
24 23 24 1
25 9 24 1
26 24 29 1
27 9 25 1
28 12 25 2
29 25 26 1
30 26 27 1
31 26 28 1
32 27 28 1
33 29 30 1
34 29 31 1
35 29 32 1
36 15 33 ar
37 33 34 ar
38 18 35 ar
39 26 36 1
@<TRIPOS>SUBSTRUCTURE
1	RES1	1	GROUP	1 ****	RES
