# created with PyMOL 2.5.2
@<TRIPOS>MOLECULE
ER_5NVV_E3ligase
35 37 1                 
SMALL
USER_CHARGES
@<TRIPOS>ATOM
1	  C1	12.731	49.989	80.789	C.3	1	RES1	0.000	
2	  N1	11.460	53.022	87.910	N.pl3	1	RES1	0.000	
3	  O1	12.828	51.835	89.324	O.2	1	RES1	0.000	
4	  C2	14.033	50.632	81.199	C.2	1	RES1	0.000	
5	  N2	13.058	54.087	91.007	N.pl3	1	RES1	0.000	
6	  O2	14.440	56.722	90.429	O.3	1	RES1	0.000	
7	  S2	15.922	51.852	82.359	S.2	1	RES1	0.000	
8	  C3	14.301	51.194	82.418	C.2	1	RES1	0.000	
9	  N3	11.419	54.528	94.186	N.pl3	1	RES1	0.000	
10	  O3	10.898	53.675	91.609	O.2	1	RES1	0.000	
11	  C4	13.499	51.385	83.628	C.2	1	RES1	0.000	
12	  O4	12.657	56.385	94.697	O.2	1	RES1	0.000	
13	  C5	13.488	52.594	84.348	C.2	1	RES1	0.000	
14	  O5	10.625	57.527	96.156	O.3	1	RES1	0.000	
15	  C6	12.664	52.736	85.494	C.2	1	RES1	0.000	
16	  N6	15.061	50.638	80.257	N.2	1	RES1	0.000	
17	  C7	11.861	51.692	85.899	C.2	1	RES1	0.000	
18	  C8	10.985	51.884	87.158	C.3	1	RES1	0.000	
19	  C9	9.503	52.003	86.817	C.3	1	RES1	0.000	
20	 C10	12.371	52.934	88.950	C.2	1	RES1	0.000	
21	 C11	12.745	54.284	89.566	C.3	1	RES1	0.000	
22	 C12	14.033	54.839	88.949	C.3	1	RES1	0.000	
23	 C13	14.825	55.369	90.147	C.3	1	RES1	0.000	
24	 C14	14.457	54.457	91.289	C.3	1	RES1	0.000	
25	 C15	12.052	53.900	91.950	C.2	1	RES1	0.000	
26	 C16	12.438	53.802	93.453	C.3	1	RES1	0.000	
27	 C17	11.622	55.758	94.777	C.2	1	RES1	0.000	
28	 C18	10.385	56.274	95.488	C.3	1	RES1	0.000	
29	 C48	12.655	52.328	93.955	C.3	1	RES1	0.000	
30	 C49	11.347	51.513	93.891	C.3	1	RES1	0.000	
31	 C50	13.148	52.364	95.416	C.3	1	RES1	0.000	
32	 C51	13.727	51.607	93.094	C.3	1	RES1	0.000	
33	 C52	11.858	50.495	85.193	C.2	1	RES1	0.000	
34	 C53	12.669	50.333	84.060	C.2	1	RES1	0.000	
35	 C54	16.092	51.225	80.773	C.2	1	RES1	0.000	
@<TRIPOS>BOND
1 1 4 1
2 2 18 1
3 2 20 1
4 3 20 2
5 4 8 ar
6 4 16 ar
7 7 8 ar
8 7 35 ar
9 8 11 1
10 11 13 ar
11 11 34 ar
12 13 15 ar
13 15 17 ar
14 17 18 1
15 18 19 1
16 20 21 1
17 5 21 1
18 21 22 1
19 22 23 1
20 6 23 1
21 23 24 1
22 5 24 1
23 5 25 1
24 10 25 2
25 25 26 1
26 9 26 1
27 26 29 1
28 9 27 1
29 12 27 2
30 27 28 1
31 14 28 1
32 29 30 1
33 29 31 1
34 29 32 1
35 17 33 ar
36 33 34 ar
37 16 35 ar
@<TRIPOS>SUBSTRUCTURE
1	RES1	1	GROUP	1 ****	RES
