# created with PyMOL 2.5.2
@<TRIPOS>MOLECULE
ER_4W9H_E3ligase
34 36 1                 
SMALL
USER_CHARGES
@<TRIPOS>ATOM
1	  C1	12.249	49.942	80.503	C.3	1	RES1	0.000	
2	  N1	11.243	52.981	87.723	N.pl3	1	RES1	0.000	
3	  O1	12.436	51.720	89.211	O.2	1	RES1	0.000	
4	  C2	13.580	50.478	80.908	C.2	1	RES1	0.000	
5	  N2	12.751	54.007	90.897	N.pl3	1	RES1	0.000	
6	  O2	14.060	56.633	90.221	O.3	1	RES1	0.000	
7	  S2	15.547	51.556	82.086	S.2	1	RES1	0.000	
8	  C3	13.894	51.055	82.157	C.2	1	RES1	0.000	
9	  N3	10.949	54.566	93.976	N.pl3	1	RES1	0.000	
10	  O3	10.541	53.664	91.405	O.2	1	RES1	0.000	
11	  C4	13.081	51.260	83.359	C.2	1	RES1	0.000	
12	  O4	12.301	56.333	94.667	O.2	1	RES1	0.000	
13	  C5	12.253	50.233	83.842	C.2	1	RES1	0.000	
14	  C6	11.488	50.441	84.975	C.2	1	RES1	0.000	
15	  N6	14.595	50.430	80.013	N.2	1	RES1	0.000	
16	  C7	11.532	51.645	85.711	C.2	1	RES1	0.000	
17	  C8	10.712	51.877	86.947	C.3	1	RES1	0.000	
18	  C9	9.217	52.083	86.597	C.3	1	RES1	0.000	
19	 C10	12.093	52.814	88.819	C.2	1	RES1	0.000	
20	 C11	12.489	54.143	89.462	C.3	1	RES1	0.000	
21	 C12	13.853	54.644	88.871	C.3	1	RES1	0.000	
22	 C13	14.540	55.287	90.051	C.3	1	RES1	0.000	
23	 C14	14.102	54.403	91.227	C.3	1	RES1	0.000	
24	 C15	11.679	53.839	91.796	C.2	1	RES1	0.000	
25	 C16	12.032	53.827	93.307	C.3	1	RES1	0.000	
26	 C17	11.223	55.771	94.594	C.2	1	RES1	0.000	
27	 C18	9.962	56.395	95.170	C.3	1	RES1	0.000	
28	 C50	12.197	52.373	93.875	C.3	1	RES1	0.000	
29	 C51	12.499	52.358	95.383	C.3	1	RES1	0.000	
30	 C52	13.360	51.696	93.152	C.3	1	RES1	0.000	
31	 C53	10.939	51.558	93.596	C.3	1	RES1	0.000	
32	 C54	12.386	52.663	85.200	C.2	1	RES1	0.000	
33	 C55	13.136	52.473	84.047	C.2	1	RES1	0.000	
34	 C56	15.669	50.951	80.494	C.2	1	RES1	0.000	
@<TRIPOS>BOND
1 1 4 1
2 2 17 1
3 2 19 1
4 3 19 2
5 4 8 ar
6 4 15 ar
7 7 8 ar
8 7 34 ar
9 8 11 1
10 11 13 ar
11 11 33 ar
12 13 14 ar
13 14 16 ar
14 16 17 1
15 17 18 1
16 19 20 1
17 5 20 1
18 20 21 1
19 21 22 1
20 6 22 1
21 22 23 1
22 5 23 1
23 5 24 1
24 10 24 2
25 24 25 1
26 9 25 1
27 25 28 1
28 9 26 1
29 12 26 2
30 26 27 1
31 28 29 1
32 28 30 1
33 28 31 1
34 16 32 ar
35 32 33 ar
36 15 34 ar
@<TRIPOS>SUBSTRUCTURE
1	RES1	1	GROUP	1 ****	RES
