# created with PyMOL 2.5.2
@<TRIPOS>MOLECULE
ER_4W9H_E3ligase
34 36 1                 
SMALL
USER_CHARGES
@<TRIPOS>ATOM
1	  C1	12.418	49.777	80.561	C.3	1	RES1	0.000	
2	  N1	11.022	52.816	87.780	N.pl3	1	RES1	0.000	
3	  O1	12.507	51.903	89.239	O.2	1	RES1	0.000	
4	  C2	13.632	50.571	80.971	C.2	1	RES1	0.000	
5	  N2	12.483	54.160	90.829	N.pl3	1	RES1	0.000	
6	  O2	15.497	55.611	89.508	O.3	1	RES1	0.000	
7	  S2	15.426	51.844	82.218	S.2	1	RES1	0.000	
8	  C3	13.847	51.151	82.207	C.2	1	RES1	0.000	
9	  N3	11.108	54.633	94.104	N.pl3	1	RES1	0.000	
10	  O3	10.339	53.823	91.568	O.2	1	RES1	0.000	
11	  C4	13.000	51.294	83.421	C.2	1	RES1	0.000	
12	  O4	12.515	56.375	94.655	O.2	1	RES1	0.000	
13	  C5	12.316	50.159	83.932	C.2	1	RES1	0.000	
14	  C6	11.548	50.269	85.074	C.2	1	RES1	0.000	
15	  N6	14.645	50.640	80.085	N.2	1	RES1	0.000	
16	  C7	11.472	51.462	85.814	C.2	1	RES1	0.000	
17	  C8	10.667	51.602	87.070	C.3	1	RES1	0.000	
18	  C9	9.152	51.561	86.805	C.3	1	RES1	0.000	
19	 C10	11.920	52.884	88.833	C.2	1	RES1	0.000	
20	 C11	12.098	54.281	89.418	C.3	1	RES1	0.000	
21	 C12	13.239	55.050	88.778	C.3	1	RES1	0.000	
22	 C13	14.454	54.630	89.592	C.3	1	RES1	0.000	
23	 C14	13.917	54.473	90.989	C.3	1	RES1	0.000	
24	 C15	11.548	53.963	91.825	C.2	1	RES1	0.000	
25	 C16	12.067	53.880	93.291	C.3	1	RES1	0.000	
26	 C17	11.412	55.839	94.706	C.2	1	RES1	0.000	
27	 C18	10.256	56.432	95.423	C.3	1	RES1	0.000	
28	 C51	12.267	52.413	93.789	C.3	1	RES1	0.000	
29	 C52	10.887	51.723	93.890	C.3	1	RES1	0.000	
30	 C53	12.917	52.391	95.179	C.3	1	RES1	0.000	
31	 C54	13.162	51.569	92.822	C.3	1	RES1	0.000	
32	 C55	12.194	52.590	85.323	C.2	1	RES1	0.000	
33	 C56	12.944	52.495	84.149	C.2	1	RES1	0.000	
34	 C57	15.649	51.309	80.591	C.2	1	RES1	0.000	
@<TRIPOS>BOND
1 1 4 1
2 2 17 1
3 2 19 1
4 3 19 2
5 4 8 ar
6 4 15 ar
7 7 8 ar
8 7 34 ar
9 8 11 1
10 11 13 ar
11 11 33 ar
12 13 14 ar
13 14 16 ar
14 16 17 1
15 17 18 1
16 19 20 1
17 5 20 1
18 20 21 1
19 21 22 1
20 6 22 1
21 22 23 1
22 5 23 1
23 5 24 1
24 10 24 2
25 24 25 1
26 9 25 1
27 25 28 1
28 9 26 1
29 12 26 2
30 26 27 1
31 28 29 1
32 28 30 1
33 28 31 1
34 16 32 ar
35 32 33 ar
36 15 34 ar
@<TRIPOS>SUBSTRUCTURE
1	RES1	1	GROUP	1 ****	RES
