# created with PyMOL 2.5.2
@<TRIPOS>MOLECULE
ER_4W9H_E3ligase
34 36 1                 
SMALL
USER_CHARGES
@<TRIPOS>ATOM
1	  C1	12.360	49.979	80.507	C.3	1	RES1	0.000	
2	  N1	10.949	52.760	87.746	N.pl3	1	RES1	0.000	
3	  O1	12.441	51.821	89.229	O.2	1	RES1	0.000	
4	  C2	13.626	50.641	80.963	C.2	1	RES1	0.000	
5	  N2	12.501	54.148	90.843	N.pl3	1	RES1	0.000	
6	  O2	15.488	55.523	89.406	O.3	1	RES1	0.000	
7	  S2	15.515	51.755	82.273	S.2	1	RES1	0.000	
8	  C3	13.897	51.150	82.234	C.2	1	RES1	0.000	
9	  N3	11.111	54.634	94.097	N.pl3	1	RES1	0.000	
10	  O3	10.369	53.874	91.616	O.2	1	RES1	0.000	
11	  C4	13.064	51.254	83.454	C.2	1	RES1	0.000	
12	  O4	12.444	56.424	94.617	O.2	1	RES1	0.000	
13	  C5	12.306	50.195	83.918	C.2	1	RES1	0.000	
14	  C6	11.493	50.309	85.046	C.2	1	RES1	0.000	
15	  N6	14.646	50.741	80.057	N.2	1	RES1	0.000	
16	  C7	11.435	51.498	85.746	C.2	1	RES1	0.000	
17	  C8	10.607	51.574	87.030	C.3	1	RES1	0.000	
18	  C9	9.079	51.460	86.848	C.3	1	RES1	0.000	
19	 C10	11.854	52.803	88.782	C.2	1	RES1	0.000	
20	 C11	12.095	54.207	89.428	C.3	1	RES1	0.000	
21	 C12	13.248	54.904	88.710	C.3	1	RES1	0.000	
22	 C13	14.460	54.533	89.539	C.3	1	RES1	0.000	
23	 C14	13.899	54.533	90.974	C.3	1	RES1	0.000	
24	 C15	11.604	53.936	91.842	C.2	1	RES1	0.000	
25	 C16	12.101	53.881	93.314	C.3	1	RES1	0.000	
26	 C17	11.381	55.850	94.698	C.2	1	RES1	0.000	
27	 C18	10.198	56.445	95.384	C.3	1	RES1	0.000	
28	 C52	12.313	52.438	93.865	C.3	1	RES1	0.000	
29	 C53	10.954	51.746	94.035	C.3	1	RES1	0.000	
30	 C54	12.970	52.529	95.280	C.3	1	RES1	0.000	
31	 C55	13.215	51.566	92.977	C.3	1	RES1	0.000	
32	 C56	12.168	52.585	85.253	C.2	1	RES1	0.000	
33	 C57	12.973	52.475	84.137	C.2	1	RES1	0.000	
34	 C58	15.685	51.300	80.632	C.2	1	RES1	0.000	
@<TRIPOS>BOND
1 1 4 1
2 2 17 1
3 2 19 1
4 3 19 2
5 4 8 ar
6 4 15 ar
7 7 8 ar
8 7 34 ar
9 8 11 1
10 11 13 ar
11 11 33 ar
12 13 14 ar
13 14 16 ar
14 16 17 1
15 17 18 1
16 19 20 1
17 5 20 1
18 20 21 1
19 21 22 1
20 6 22 1
21 22 23 1
22 5 23 1
23 5 24 1
24 10 24 2
25 24 25 1
26 9 25 1
27 25 28 1
28 9 26 1
29 12 26 2
30 26 27 1
31 28 29 1
32 28 30 1
33 28 31 1
34 16 32 ar
35 32 33 ar
36 15 34 ar
@<TRIPOS>SUBSTRUCTURE
1	RES1	1	GROUP	1 ****	RES
