# created with PyMOL 2.5.2
@<TRIPOS>MOLECULE
ER_4W9H_E3ligase
34 36 1                 
SMALL
USER_CHARGES
@<TRIPOS>ATOM
1	  C1	12.272	49.869	80.433	C.3	1	RES1	0.000	
2	  N1	11.232	53.057	87.603	N.pl3	1	RES1	0.000	
3	  O1	12.330	51.823	89.203	O.2	1	RES1	0.000	
4	  C2	13.598	50.384	80.856	C.2	1	RES1	0.000	
5	  N2	12.581	54.069	90.897	N.pl3	1	RES1	0.000	
6	  O2	14.160	56.588	90.387	O.3	1	RES1	0.000	
7	  S2	15.590	51.461	82.035	S.2	1	RES1	0.000	
8	  C3	13.942	50.971	82.075	C.2	1	RES1	0.000	
9	  N3	11.020	54.560	94.109	N.pl3	1	RES1	0.000	
10	  O3	10.425	53.735	91.599	O.2	1	RES1	0.000	
11	  C4	13.095	51.230	83.266	C.2	1	RES1	0.000	
12	  O4	12.254	56.417	94.652	O.2	1	RES1	0.000	
13	  C5	13.156	52.465	83.922	C.2	1	RES1	0.000	
14	  C6	12.400	52.720	85.053	C.2	1	RES1	0.000	
15	  N6	14.653	50.299	79.936	N.2	1	RES1	0.000	
16	  C7	11.536	51.706	85.567	C.2	1	RES1	0.000	
17	  C8	10.720	51.925	86.825	C.3	1	RES1	0.000	
18	  C9	9.245	52.136	86.525	C.3	1	RES1	0.000	
19	 C10	12.027	52.923	88.725	C.2	1	RES1	0.000	
20	 C11	12.391	54.230	89.462	C.3	1	RES1	0.000	
21	 C12	13.755	54.688	88.910	C.3	1	RES1	0.000	
22	 C13	14.492	55.214	90.147	C.3	1	RES1	0.000	
23	 C14	13.973	54.348	91.255	C.3	1	RES1	0.000	
24	 C15	11.612	53.866	91.885	C.2	1	RES1	0.000	
25	 C16	12.062	53.856	93.365	C.3	1	RES1	0.000	
26	 C17	11.206	55.779	94.690	C.2	1	RES1	0.000	
27	 C18	9.986	56.256	95.446	C.3	1	RES1	0.000	
28	 C53	12.289	52.378	93.916	C.3	1	RES1	0.000	
29	 C54	12.656	52.360	95.407	C.3	1	RES1	0.000	
30	 C55	13.423	51.707	93.122	C.3	1	RES1	0.000	
31	 C56	11.009	51.538	93.744	C.3	1	RES1	0.000	
32	 C57	11.504	50.478	84.891	C.2	1	RES1	0.000	
33	 C58	12.230	50.239	83.770	C.2	1	RES1	0.000	
34	 C59	15.737	50.860	80.459	C.2	1	RES1	0.000	
@<TRIPOS>BOND
1 1 4 1
2 2 17 1
3 2 19 1
4 3 19 2
5 4 8 ar
6 4 15 ar
7 7 8 ar
8 7 34 ar
9 8 11 1
10 11 13 ar
11 11 33 ar
12 13 14 ar
13 14 16 ar
14 16 17 1
15 17 18 1
16 19 20 1
17 5 20 1
18 20 21 1
19 21 22 1
20 6 22 1
21 22 23 1
22 5 23 1
23 5 24 1
24 10 24 2
25 24 25 1
26 9 25 1
27 25 28 1
28 9 26 1
29 12 26 2
30 26 27 1
31 28 29 1
32 28 30 1
33 28 31 1
34 16 32 ar
35 32 33 ar
36 15 34 ar
@<TRIPOS>SUBSTRUCTURE
1	RES1	1	GROUP	1 ****	RES
