# created with PyMOL 2.5.2
@<TRIPOS>MOLECULE
ER_4W9H_E3ligase
34 36 1                 
SMALL
USER_CHARGES
@<TRIPOS>ATOM
1	  C1	12.330	49.996	80.535	C.3	1	RES1	0.000	
2	  N1	10.952	52.758	87.743	N.pl3	1	RES1	0.000	
3	  O1	12.431	51.855	89.219	O.2	1	RES1	0.000	
4	  C2	13.594	50.612	80.989	C.2	1	RES1	0.000	
5	  N2	12.496	54.138	90.840	N.pl3	1	RES1	0.000	
6	  O2	15.476	55.565	89.409	O.3	1	RES1	0.000	
7	  S2	15.514	51.794	82.236	S.2	1	RES1	0.000	
8	  C3	13.900	51.166	82.236	C.2	1	RES1	0.000	
9	  N3	11.112	54.637	94.099	N.pl3	1	RES1	0.000	
10	  O3	10.373	53.819	91.599	O.2	1	RES1	0.000	
11	  C4	13.072	51.285	83.438	C.2	1	RES1	0.000	
12	  O4	12.485	56.400	94.609	O.2	1	RES1	0.000	
13	  C5	12.352	50.200	83.895	C.2	1	RES1	0.000	
14	  C6	11.537	50.315	85.045	C.2	1	RES1	0.000	
15	  N6	14.635	50.654	80.069	N.2	1	RES1	0.000	
16	  C7	11.444	51.484	85.750	C.2	1	RES1	0.000	
17	  C8	10.626	51.540	87.029	C.3	1	RES1	0.000	
18	  C9	9.097	51.414	86.841	C.3	1	RES1	0.000	
19	 C10	11.867	52.819	88.774	C.2	1	RES1	0.000	
20	 C11	12.079	54.208	89.414	C.3	1	RES1	0.000	
21	 C12	13.228	54.925	88.726	C.3	1	RES1	0.000	
22	 C13	14.447	54.602	89.591	C.3	1	RES1	0.000	
23	 C14	13.880	54.550	90.988	C.3	1	RES1	0.000	
24	 C15	11.585	53.941	91.857	C.2	1	RES1	0.000	
25	 C16	12.102	53.884	93.320	C.3	1	RES1	0.000	
26	 C17	11.402	55.851	94.677	C.2	1	RES1	0.000	
27	 C18	10.240	56.473	95.392	C.3	1	RES1	0.000	
28	 C54	12.307	52.413	93.870	C.3	1	RES1	0.000	
29	 C55	10.916	51.759	94.014	C.3	1	RES1	0.000	
30	 C56	12.957	52.460	95.248	C.3	1	RES1	0.000	
31	 C57	13.191	51.545	92.948	C.3	1	RES1	0.000	
32	 C58	12.189	52.605	85.292	C.2	1	RES1	0.000	
33	 C59	12.963	52.499	84.174	C.2	1	RES1	0.000	
34	 C60	15.687	51.257	80.605	C.2	1	RES1	0.000	
@<TRIPOS>BOND
1 1 4 1
2 2 17 1
3 2 19 1
4 3 19 2
5 4 8 ar
6 4 15 ar
7 7 8 ar
8 7 34 ar
9 8 11 1
10 11 13 ar
11 11 33 ar
12 13 14 ar
13 14 16 ar
14 15 34 ar
15 16 17 1
16 17 18 1
17 19 20 1
18 5 20 1
19 20 21 1
20 21 22 1
21 6 22 1
22 22 23 1
23 5 23 1
24 5 24 1
25 10 24 2
26 24 25 1
27 9 25 1
28 25 28 1
29 9 26 1
30 12 26 2
31 26 27 1
32 28 29 1
33 28 30 1
34 28 31 1
35 16 32 ar
36 32 33 ar
@<TRIPOS>SUBSTRUCTURE
1	RES1	1	GROUP	1 ****	RES
