# created with PyMOL 2.5.2
@<TRIPOS>MOLECULE
ER_5NVV_E3ligase
35 37 1                 
SMALL
USER_CHARGES
@<TRIPOS>ATOM
1	  C1	12.607	49.814	80.719	C.3	1	RES1	0.000	
2	  N1	11.660	53.238	87.920	N.pl3	1	RES1	0.000	
3	  O1	12.970	52.081	89.388	O.2	1	RES1	0.000	
4	  C2	13.902	50.449	81.116	C.2	1	RES1	0.000	
5	  N2	13.131	54.248	91.090	N.pl3	1	RES1	0.000	
6	  O2	14.473	56.905	90.631	O.3	1	RES1	0.000	
7	  S2	15.879	51.522	82.264	S.2	1	RES1	0.000	
8	  C3	14.251	51.048	82.323	C.2	1	RES1	0.000	
9	  N3	11.340	54.378	94.199	N.pl3	1	RES1	0.000	
10	  O3	10.969	53.646	91.589	O.2	1	RES1	0.000	
11	  C4	13.425	51.331	83.512	C.2	1	RES1	0.000	
12	  O4	12.448	56.312	94.812	O.2	1	RES1	0.000	
13	  C5	13.534	52.586	84.165	C.2	1	RES1	0.000	
14	  O5	10.348	57.329	96.170	O.3	1	RES1	0.000	
15	  C6	12.800	52.870	85.317	C.2	1	RES1	0.000	
16	  N6	14.917	50.353	80.170	N.2	1	RES1	0.000	
17	  C7	11.936	51.908	85.873	C.2	1	RES1	0.000	
18	  C8	11.133	52.132	87.131	C.3	1	RES1	0.000	
19	  C9	9.626	52.232	86.884	C.3	1	RES1	0.000	
20	 C10	12.520	53.125	88.965	C.2	1	RES1	0.000	
21	 C11	12.839	54.463	89.651	C.3	1	RES1	0.000	
22	 C12	14.131	55.046	89.101	C.3	1	RES1	0.000	
23	 C13	14.867	55.563	90.303	C.3	1	RES1	0.000	
24	 C14	14.514	54.599	91.407	C.3	1	RES1	0.000	
25	 C15	12.101	53.882	91.974	C.2	1	RES1	0.000	
26	 C16	12.462	53.778	93.489	C.3	1	RES1	0.000	
27	 C17	11.441	55.612	94.791	C.2	1	RES1	0.000	
28	 C18	10.180	56.055	95.513	C.3	1	RES1	0.000	
29	 C50	12.709	52.305	93.941	C.3	1	RES1	0.000	
30	 C51	11.414	51.483	93.822	C.3	1	RES1	0.000	
31	 C52	13.176	52.255	95.398	C.3	1	RES1	0.000	
32	 C53	13.797	51.582	93.084	C.3	1	RES1	0.000	
33	 C54	11.863	50.659	85.233	C.2	1	RES1	0.000	
34	 C55	12.601	50.398	84.081	C.2	1	RES1	0.000	
35	 C56	16.011	50.896	80.659	C.2	1	RES1	0.000	
@<TRIPOS>BOND
1 1 4 1
2 2 18 1
3 2 20 1
4 3 20 2
5 4 8 ar
6 4 16 ar
7 7 8 ar
8 7 35 ar
9 8 11 1
10 11 13 ar
11 11 34 ar
12 13 15 ar
13 15 17 ar
14 17 18 1
15 18 19 1
16 20 21 1
17 5 21 1
18 21 22 1
19 22 23 1
20 6 23 1
21 23 24 1
22 5 24 1
23 5 25 1
24 10 25 2
25 25 26 1
26 9 26 1
27 26 29 1
28 9 27 1
29 12 27 2
30 27 28 1
31 14 28 1
32 29 30 1
33 29 31 1
34 29 32 1
35 17 33 ar
36 33 34 ar
37 16 35 ar
@<TRIPOS>SUBSTRUCTURE
1	RES1	1	GROUP	1 ****	RES
