# created with PyMOL 2.5.2
@<TRIPOS>MOLECULE
ER_5NVV_E3ligase
35 37 1                 
SMALL
USER_CHARGES
@<TRIPOS>ATOM
1	  C1	12.725	50.019	80.759	C.3	1	RES1	0.000	
2	  N1	11.424	53.073	87.929	N.pl3	1	RES1	0.000	
3	  O1	12.759	51.843	89.337	O.2	1	RES1	0.000	
4	  C2	13.996	50.625	81.218	C.2	1	RES1	0.000	
5	  N2	13.088	54.107	91.018	N.pl3	1	RES1	0.000	
6	  O2	14.473	56.718	90.209	O.3	1	RES1	0.000	
7	  S2	15.909	51.792	82.430	S.2	1	RES1	0.000	
8	  C3	14.281	51.223	82.438	C.2	1	RES1	0.000	
9	  N3	11.455	54.471	94.223	N.pl3	1	RES1	0.000	
10	  O3	10.945	53.658	91.641	O.2	1	RES1	0.000	
11	  C4	13.414	51.420	83.628	C.2	1	RES1	0.000	
12	  O4	12.707	56.370	94.682	O.2	1	RES1	0.000	
13	  C5	13.430	52.608	84.324	C.2	1	RES1	0.000	
14	  O5	10.619	57.545	96.105	O.3	1	RES1	0.000	
15	  C6	12.652	52.808	85.443	C.2	1	RES1	0.000	
16	  N6	15.064	50.612	80.318	N.2	1	RES1	0.000	
17	  C7	11.816	51.769	85.902	C.2	1	RES1	0.000	
18	  C8	10.930	51.945	87.139	C.3	1	RES1	0.000	
19	  C9	9.447	52.127	86.805	C.3	1	RES1	0.000	
20	 C10	12.314	52.926	88.962	C.2	1	RES1	0.000	
21	 C11	12.746	54.250	89.592	C.3	1	RES1	0.000	
22	 C12	14.021	54.710	88.916	C.3	1	RES1	0.000	
23	 C13	14.838	55.336	90.037	C.3	1	RES1	0.000	
24	 C14	14.460	54.514	91.240	C.3	1	RES1	0.000	
25	 C15	12.096	53.855	91.968	C.2	1	RES1	0.000	
26	 C16	12.513	53.780	93.450	C.3	1	RES1	0.000	
27	 C17	11.683	55.738	94.790	C.2	1	RES1	0.000	
28	 C18	10.429	56.290	95.451	C.3	1	RES1	0.000	
29	 C52	12.723	52.314	93.975	C.3	1	RES1	0.000	
30	 C53	11.387	51.605	94.126	C.3	1	RES1	0.000	
31	 C54	13.360	52.354	95.376	C.3	1	RES1	0.000	
32	 C55	13.642	51.470	93.075	C.3	1	RES1	0.000	
33	 C56	11.780	50.569	85.203	C.2	1	RES1	0.000	
34	 C57	12.570	50.384	84.082	C.2	1	RES1	0.000	
35	 C58	16.100	51.162	80.833	C.2	1	RES1	0.000	
@<TRIPOS>BOND
1 1 4 1
2 2 18 1
3 2 20 1
4 3 20 2
5 4 8 ar
6 4 16 ar
7 7 8 ar
8 7 35 ar
9 8 11 1
10 11 13 ar
11 11 34 ar
12 13 15 ar
13 15 17 ar
14 17 18 1
15 18 19 1
16 20 21 1
17 5 21 1
18 21 22 1
19 22 23 1
20 6 23 1
21 23 24 1
22 5 24 1
23 5 25 1
24 10 25 2
25 25 26 1
26 9 26 1
27 26 29 1
28 9 27 1
29 12 27 2
30 27 28 1
31 14 28 1
32 29 30 1
33 29 31 1
34 29 32 1
35 17 33 ar
36 33 34 ar
37 16 35 ar
@<TRIPOS>SUBSTRUCTURE
1	RES1	1	GROUP	1 ****	RES
