# created with PyMOL 2.5.2
@<TRIPOS>MOLECULE
CRBN_7BQU_E3ligase
19 21 1                 
SMALL
USER_CHARGES
@<TRIPOS>ATOM
1	  C1	26.605	19.926	16.566	C.2	1	RES1	0.000	
2	  N1	24.924	17.418	13.515	N.2	1	RES1	0.000	
3	  O1	27.150	20.680	17.351	O.2	1	RES1	0.000	
4	  C2	26.414	18.435	16.899	C.3	1	RES1	0.000	
5	  O2	26.841	17.954	12.291	O.2	1	RES1	0.000	
6	  C3	26.280	17.627	15.618	C.3	1	RES1	0.000	
7	  C4	25.133	18.153	14.773	C.3	1	RES1	0.000	
8	  C5	25.793	17.391	12.434	C.2	1	RES1	0.000	
9	  C6	25.151	16.549	11.421	C.2	1	RES1	0.000	
10	  N6	26.045	20.365	15.401	N.pl3	1	RES1	0.000	
11	  C7	25.588	16.186	10.143	C.2	1	RES1	0.000	
12	  C8	24.756	15.386	9.392	C.2	1	RES1	0.000	
13	  C9	23.514	14.951	9.870	C.2	1	RES1	0.000	
14	 O11	22.794	16.468	13.960	O.2	1	RES1	0.000	
15	 O12	24.843	20.207	13.456	O.2	1	RES1	0.000	
16	 C31	23.083	15.315	11.150	C.2	1	RES1	0.000	
17	 C32	23.964	16.112	11.911	C.2	1	RES1	0.000	
18	 C33	23.789	16.673	13.248	C.2	1	RES1	0.000	
19	 C34	25.327	19.658	14.441	C.2	1	RES1	0.000	
@<TRIPOS>BOND
1 1 3 2
2 1 4 1
3 1 10 1
4 2 7 1
5 2 8 ar
6 2 18 ar
7 4 6 1
8 5 8 2
9 6 7 1
10 8 9 ar
11 9 11 ar
12 11 12 ar
13 12 13 ar
14 14 18 2
15 15 19 2
16 13 16 ar
17 16 17 ar
18 9 17 ar
19 17 18 ar
20 7 19 1
21 10 19 1
@<TRIPOS>SUBSTRUCTURE
1	RES1	1	GROUP	1 ****	RES
