# created with PyMOL 2.5.2
@<TRIPOS>MOLECULE
ER_5NVV_E3ligase
35 37 1                 
SMALL
USER_CHARGES
@<TRIPOS>ATOM
1	  C1	12.793	49.890	80.688	C.3	1	RES1	0.000	
2	  N1	11.522	53.173	87.754	N.pl3	1	RES1	0.000	
3	  O1	12.670	51.921	89.314	O.2	1	RES1	0.000	
4	  C2	14.076	50.536	81.082	C.2	1	RES1	0.000	
5	  N2	12.879	54.116	91.056	N.pl3	1	RES1	0.000	
6	  O2	14.414	56.660	90.579	O.3	1	RES1	0.000	
7	  S2	16.031	51.657	82.272	S.2	1	RES1	0.000	
8	  C3	14.387	51.150	82.307	C.2	1	RES1	0.000	
9	  N3	11.388	54.490	94.308	N.pl3	1	RES1	0.000	
10	  O3	10.780	53.664	91.819	O.2	1	RES1	0.000	
11	  C4	13.556	51.381	83.488	C.2	1	RES1	0.000	
12	  O4	12.493	56.496	94.718	O.2	1	RES1	0.000	
13	  C5	13.561	52.594	84.158	C.2	1	RES1	0.000	
14	  O5	10.445	57.435	96.294	O.3	1	RES1	0.000	
15	  C6	12.788	52.822	85.287	C.2	1	RES1	0.000	
16	  N6	15.092	50.503	80.164	N.2	1	RES1	0.000	
17	  C7	11.907	51.827	85.756	C.2	1	RES1	0.000	
18	  C8	11.020	52.042	86.974	C.3	1	RES1	0.000	
19	  C9	9.539	52.249	86.589	C.3	1	RES1	0.000	
20	 C10	12.335	53.015	88.854	C.2	1	RES1	0.000	
21	 C11	12.694	54.292	89.598	C.3	1	RES1	0.000	
22	 C12	14.055	54.803	89.100	C.3	1	RES1	0.000	
23	 C13	14.787	55.285	90.330	C.3	1	RES1	0.000	
24	 C14	14.259	54.379	91.406	C.3	1	RES1	0.000	
25	 C15	11.949	53.856	92.037	C.2	1	RES1	0.000	
26	 C16	12.444	53.826	93.510	C.3	1	RES1	0.000	
27	 C17	11.503	55.746	94.851	C.2	1	RES1	0.000	
28	 C18	10.317	56.158	95.684	C.3	1	RES1	0.000	
29	 C54	12.765	52.415	94.038	C.3	1	RES1	0.000	
30	 C55	11.565	51.474	94.075	C.3	1	RES1	0.000	
31	 C56	13.336	52.500	95.488	C.3	1	RES1	0.000	
32	 C57	13.876	51.735	93.179	C.3	1	RES1	0.000	
33	 C58	11.858	50.605	85.041	C.2	1	RES1	0.000	
34	 C59	12.639	50.375	83.941	C.2	1	RES1	0.000	
35	 C60	16.167	51.049	80.682	C.2	1	RES1	0.000	
@<TRIPOS>BOND
1 1 4 1
2 2 18 1
3 2 20 1
4 3 20 2
5 4 8 ar
6 4 16 ar
7 7 8 ar
8 7 35 ar
9 8 11 1
10 11 13 ar
11 11 34 ar
12 13 15 ar
13 15 17 ar
14 16 35 ar
15 17 18 1
16 18 19 1
17 20 21 1
18 5 21 1
19 21 22 1
20 22 23 1
21 6 23 1
22 23 24 1
23 5 24 1
24 5 25 1
25 10 25 2
26 25 26 1
27 9 26 1
28 26 29 1
29 9 27 1
30 12 27 2
31 27 28 1
32 14 28 1
33 29 30 1
34 29 31 1
35 29 32 1
36 17 33 ar
37 33 34 ar
@<TRIPOS>SUBSTRUCTURE
1	RES1	1	GROUP	1 ****	RES
