# created with PyMOL 2.5.2
@<TRIPOS>MOLECULE
ER_5NVV_E3ligase
35 37 1                 
SMALL
USER_CHARGES
@<TRIPOS>ATOM
1	  C1	12.614	49.881	80.739	C.3	1	RES1	0.000	
2	  N1	11.578	53.269	87.863	N.pl3	1	RES1	0.000	
3	  O1	12.744	51.987	89.391	O.2	1	RES1	0.000	
4	  C2	13.919	50.432	81.155	C.2	1	RES1	0.000	
5	  N2	13.174	54.189	91.084	N.pl3	1	RES1	0.000	
6	  O2	14.335	56.897	90.299	O.3	1	RES1	0.000	
7	  S2	15.875	51.599	82.296	S.2	1	RES1	0.000	
8	  C3	14.243	51.089	82.342	C.2	1	RES1	0.000	
9	  N3	11.430	54.379	94.218	N.pl3	1	RES1	0.000	
10	  O3	11.021	53.636	91.605	O.2	1	RES1	0.000	
11	  C4	13.402	51.377	83.537	C.2	1	RES1	0.000	
12	  O4	12.604	56.272	94.862	O.2	1	RES1	0.000	
13	  C5	12.526	50.399	84.052	C.2	1	RES1	0.000	
14	  O5	10.449	57.371	96.137	O.3	1	RES1	0.000	
15	  C6	11.751	50.690	85.200	C.2	1	RES1	0.000	
16	  N6	14.960	50.343	80.263	N.2	1	RES1	0.000	
17	  C7	11.861	51.938	85.856	C.2	1	RES1	0.000	
18	  C8	11.034	52.172	87.103	C.3	1	RES1	0.000	
19	  C9	9.549	52.441	86.770	C.3	1	RES1	0.000	
20	 C10	12.446	53.080	88.920	C.2	1	RES1	0.000	
21	 C11	12.879	54.373	89.657	C.3	1	RES1	0.000	
22	 C12	14.173	54.893	89.036	C.3	1	RES1	0.000	
23	 C13	14.862	55.595	90.192	C.3	1	RES1	0.000	
24	 C14	14.496	54.730	91.391	C.3	1	RES1	0.000	
25	 C15	12.170	53.852	92.003	C.2	1	RES1	0.000	
26	 C16	12.506	53.750	93.489	C.3	1	RES1	0.000	
27	 C17	11.574	55.617	94.821	C.2	1	RES1	0.000	
28	 C18	10.283	56.126	95.466	C.3	1	RES1	0.000	
29	 C56	12.742	52.253	93.980	C.3	1	RES1	0.000	
30	 C57	11.414	51.516	94.004	C.3	1	RES1	0.000	
31	 C58	13.258	52.272	95.454	C.3	1	RES1	0.000	
32	 C59	13.726	51.487	93.113	C.3	1	RES1	0.000	
33	 C60	12.747	52.865	85.340	C.2	1	RES1	0.000	
34	 C61	13.505	52.615	84.214	C.2	1	RES1	0.000	
35	 C62	16.049	50.919	80.747	C.2	1	RES1	0.000	
@<TRIPOS>BOND
1 1 4 1
2 2 18 1
3 2 20 1
4 3 20 2
5 4 8 ar
6 4 16 ar
7 7 8 ar
8 7 35 ar
9 8 11 1
10 11 13 ar
11 11 34 ar
12 13 15 ar
13 15 17 ar
14 16 35 ar
15 17 18 1
16 18 19 1
17 20 21 1
18 5 21 1
19 21 22 1
20 22 23 1
21 6 23 1
22 23 24 1
23 5 24 1
24 5 25 1
25 10 25 2
26 25 26 1
27 9 26 1
28 26 29 1
29 9 27 1
30 12 27 2
31 27 28 1
32 14 28 1
33 29 30 1
34 29 31 1
35 29 32 1
36 17 33 ar
37 33 34 ar
@<TRIPOS>SUBSTRUCTURE
1	RES1	1	GROUP	1 ****	RES
