# created with PyMOL 2.5.2
@<TRIPOS>MOLECULE
ER_5NVV_E3ligase
35 37 1                 
SMALL
USER_CHARGES
@<TRIPOS>ATOM
1	  C1	12.786	49.877	80.587	C.3	1	RES1	0.000	
2	  N1	11.611	53.177	87.759	N.pl3	1	RES1	0.000	
3	  O1	12.853	51.992	89.265	O.2	1	RES1	0.000	
4	  C2	14.052	50.460	81.051	C.2	1	RES1	0.000	
5	  N2	12.905	54.146	91.075	N.pl3	1	RES1	0.000	
6	  O2	14.330	56.761	90.677	O.3	1	RES1	0.000	
7	  S2	15.983	51.630	82.251	S.2	1	RES1	0.000	
8	  C3	14.326	51.122	82.253	C.2	1	RES1	0.000	
9	  N3	11.410	54.464	94.334	N.pl3	1	RES1	0.000	
10	  O3	10.757	53.712	91.813	O.2	1	RES1	0.000	
11	  C4	13.466	51.392	83.411	C.2	1	RES1	0.000	
12	  O4	12.491	56.451	94.774	O.2	1	RES1	0.000	
13	  C5	12.605	50.383	83.897	C.2	1	RES1	0.000	
14	  O5	10.479	57.423	96.291	O.3	1	RES1	0.000	
15	  C6	11.855	50.622	85.058	C.2	1	RES1	0.000	
16	  N6	15.138	50.362	80.187	N.2	1	RES1	0.000	
17	  C7	11.939	51.813	85.742	C.2	1	RES1	0.000	
18	  C8	11.100	52.065	86.988	C.3	1	RES1	0.000	
19	  C9	9.611	52.225	86.696	C.3	1	RES1	0.000	
20	 C10	12.420	53.065	88.854	C.2	1	RES1	0.000	
21	 C11	12.721	54.363	89.641	C.3	1	RES1	0.000	
22	 C12	14.034	54.910	89.126	C.3	1	RES1	0.000	
23	 C13	14.755	55.414	90.380	C.3	1	RES1	0.000	
24	 C14	14.268	54.478	91.468	C.3	1	RES1	0.000	
25	 C15	11.958	53.873	92.071	C.2	1	RES1	0.000	
26	 C16	12.452	53.807	93.528	C.3	1	RES1	0.000	
27	 C17	11.523	55.716	94.906	C.2	1	RES1	0.000	
28	 C18	10.288	56.140	95.678	C.3	1	RES1	0.000	
29	 C58	12.742	52.376	94.039	C.3	1	RES1	0.000	
30	 C59	11.505	51.457	94.005	C.3	1	RES1	0.000	
31	 C60	13.272	52.396	95.483	C.3	1	RES1	0.000	
32	 C61	13.826	51.683	93.175	C.3	1	RES1	0.000	
33	 C62	12.778	52.819	85.250	C.2	1	RES1	0.000	
34	 C63	13.540	52.593	84.116	C.2	1	RES1	0.000	
35	 C64	16.191	50.930	80.711	C.2	1	RES1	0.000	
@<TRIPOS>BOND
1 1 4 1
2 2 18 1
3 2 20 1
4 3 20 2
5 4 8 ar
6 4 16 ar
7 7 8 ar
8 7 35 ar
9 8 11 1
10 11 13 ar
11 11 34 ar
12 13 15 ar
13 15 17 ar
14 16 35 ar
15 17 18 1
16 18 19 1
17 20 21 1
18 5 21 1
19 21 22 1
20 22 23 1
21 6 23 1
22 23 24 1
23 5 24 1
24 5 25 1
25 10 25 2
26 25 26 1
27 9 26 1
28 26 29 1
29 9 27 1
30 12 27 2
31 27 28 1
32 14 28 1
33 29 30 1
34 29 31 1
35 29 32 1
36 17 33 ar
37 33 34 ar
@<TRIPOS>SUBSTRUCTURE
1	RES1	1	GROUP	1 ****	RES
