# created with PyMOL 2.5.2
@<TRIPOS>MOLECULE
ER_5NVV_E3ligase
35 37 1                 
SMALL
USER_CHARGES
@<TRIPOS>ATOM
1	  C1	12.624	49.926	80.720	C.3	1	RES1	0.000	
2	  N1	11.562	53.253	87.876	N.pl3	1	RES1	0.000	
3	  O1	12.830	51.988	89.308	O.2	1	RES1	0.000	
4	  C2	13.914	50.463	81.165	C.2	1	RES1	0.000	
5	  N2	13.164	54.167	91.085	N.pl3	1	RES1	0.000	
6	  O2	14.385	56.891	90.407	O.3	1	RES1	0.000	
7	  S2	15.876	51.590	82.338	S.2	1	RES1	0.000	
8	  C3	14.224	51.105	82.359	C.2	1	RES1	0.000	
9	  N3	11.434	54.409	94.211	N.pl3	1	RES1	0.000	
10	  O3	11.013	53.645	91.638	O.2	1	RES1	0.000	
11	  C4	13.400	51.387	83.517	C.2	1	RES1	0.000	
12	  O4	12.613	56.275	94.849	O.2	1	RES1	0.000	
13	  C5	13.466	52.610	84.167	C.2	1	RES1	0.000	
14	  O5	10.415	57.397	96.121	O.3	1	RES1	0.000	
15	  C6	12.683	52.868	85.313	C.2	1	RES1	0.000	
16	  N6	14.978	50.350	80.279	N.2	1	RES1	0.000	
17	  C7	11.828	51.922	85.842	C.2	1	RES1	0.000	
18	  C8	11.016	52.152	87.091	C.3	1	RES1	0.000	
19	  C9	9.550	52.373	86.795	C.3	1	RES1	0.000	
20	 C10	12.436	53.086	88.915	C.2	1	RES1	0.000	
21	 C11	12.842	54.367	89.658	C.3	1	RES1	0.000	
22	 C12	14.127	54.913	89.026	C.3	1	RES1	0.000	
23	 C13	14.862	55.548	90.203	C.3	1	RES1	0.000	
24	 C14	14.514	54.663	91.375	C.3	1	RES1	0.000	
25	 C15	12.145	53.854	92.000	C.2	1	RES1	0.000	
26	 C16	12.512	53.722	93.507	C.3	1	RES1	0.000	
27	 C17	11.553	55.655	94.827	C.2	1	RES1	0.000	
28	 C18	10.273	56.165	95.446	C.3	1	RES1	0.000	
29	 C60	12.763	52.283	94.000	C.3	1	RES1	0.000	
30	 C61	11.421	51.465	93.991	C.3	1	RES1	0.000	
31	 C62	13.303	52.284	95.422	C.3	1	RES1	0.000	
32	 C63	13.764	51.515	93.103	C.3	1	RES1	0.000	
33	 C64	11.796	50.656	85.217	C.2	1	RES1	0.000	
34	 C65	12.571	50.401	84.092	C.2	1	RES1	0.000	
35	 C66	16.043	50.895	80.764	C.2	1	RES1	0.000	
@<TRIPOS>BOND
1 1 4 1
2 2 18 1
3 2 20 1
4 3 20 2
5 4 8 ar
6 4 16 ar
7 7 8 ar
8 7 35 ar
9 8 11 1
10 11 13 ar
11 11 34 ar
12 13 15 ar
13 15 17 ar
14 16 35 ar
15 17 18 1
16 18 19 1
17 20 21 1
18 5 21 1
19 21 22 1
20 22 23 1
21 6 23 1
22 23 24 1
23 5 24 1
24 5 25 1
25 10 25 2
26 25 26 1
27 9 26 1
28 26 29 1
29 9 27 1
30 12 27 2
31 27 28 1
32 14 28 1
33 29 30 1
34 29 31 1
35 29 32 1
36 17 33 ar
37 33 34 ar
@<TRIPOS>SUBSTRUCTURE
1	RES1	1	GROUP	1 ****	RES
