# created with PyMOL 2.5.2
@<TRIPOS>MOLECULE
ER_5NVV_E3ligase
35 37 1                 
SMALL
USER_CHARGES
@<TRIPOS>ATOM
1	  C1	12.688	49.899	80.858	C.3	1	RES1	0.000	
2	  N1	11.436	53.160	87.907	N.pl3	1	RES1	0.000	
3	  O1	12.798	51.902	89.286	O.2	1	RES1	0.000	
4	  C2	13.966	50.551	81.233	C.2	1	RES1	0.000	
5	  N2	13.091	54.137	91.030	N.pl3	1	RES1	0.000	
6	  O2	14.431	56.791	90.333	O.3	1	RES1	0.000	
7	  S2	15.918	51.729	82.348	S.2	1	RES1	0.000	
8	  C3	14.291	51.160	82.436	C.2	1	RES1	0.000	
9	  N3	11.444	54.436	94.212	N.pl3	1	RES1	0.000	
10	  O3	10.929	53.651	91.608	O.2	1	RES1	0.000	
11	  C4	13.503	51.380	83.631	C.2	1	RES1	0.000	
12	  O4	12.694	56.312	94.741	O.2	1	RES1	0.000	
13	  C5	13.491	52.596	84.312	C.2	1	RES1	0.000	
14	  O5	10.627	57.496	96.105	O.3	1	RES1	0.000	
15	  C6	12.727	52.822	85.439	C.2	1	RES1	0.000	
16	  N6	14.953	50.545	80.250	N.2	1	RES1	0.000	
17	  C7	11.845	51.833	85.918	C.2	1	RES1	0.000	
18	  C8	10.954	52.015	87.135	C.3	1	RES1	0.000	
19	  C9	9.487	52.218	86.747	C.3	1	RES1	0.000	
20	 C10	12.331	52.998	88.959	C.2	1	RES1	0.000	
21	 C11	12.761	54.320	89.627	C.3	1	RES1	0.000	
22	 C12	14.034	54.819	88.958	C.3	1	RES1	0.000	
23	 C13	14.836	55.422	90.108	C.3	1	RES1	0.000	
24	 C14	14.481	54.534	91.301	C.3	1	RES1	0.000	
25	 C15	12.084	53.859	91.959	C.2	1	RES1	0.000	
26	 C16	12.508	53.766	93.466	C.3	1	RES1	0.000	
27	 C17	11.657	55.718	94.786	C.2	1	RES1	0.000	
28	 C18	10.396	56.234	95.467	C.3	1	RES1	0.000	
29	 C47	12.721	52.307	93.941	C.3	1	RES1	0.000	
30	 C48	11.356	51.584	94.018	C.3	1	RES1	0.000	
31	 C49	13.316	52.278	95.353	C.3	1	RES1	0.000	
32	 C50	13.648	51.478	93.021	C.3	1	RES1	0.000	
33	 C51	11.807	50.601	85.219	C.2	1	RES1	0.000	
34	 C52	12.620	50.378	84.132	C.2	1	RES1	0.000	
35	 C53	16.008	51.151	80.725	C.2	1	RES1	0.000	
@<TRIPOS>BOND
1 1 4 1
2 2 18 1
3 2 20 1
4 3 20 2
5 4 8 ar
6 4 16 ar
7 7 8 ar
8 7 35 ar
9 8 11 1
10 11 13 ar
11 11 34 ar
12 13 15 ar
13 15 17 ar
14 17 18 1
15 18 19 1
16 20 21 1
17 5 21 1
18 21 22 1
19 22 23 1
20 6 23 1
21 23 24 1
22 5 24 1
23 5 25 1
24 10 25 2
25 25 26 1
26 9 26 1
27 26 29 1
28 9 27 1
29 12 27 2
30 27 28 1
31 14 28 1
32 29 30 1
33 29 31 1
34 29 32 1
35 17 33 ar
36 33 34 ar
37 16 35 ar
@<TRIPOS>SUBSTRUCTURE
1	RES1	1	GROUP	1 ****	RES
