# created with PyMOL 2.5.2
@<TRIPOS>MOLECULE
ER_4W9H_E3ligase
34 36 1                 
SMALL
USER_CHARGES
@<TRIPOS>ATOM
1	  C1	12.261	49.921	80.582	C.3	1	RES1	0.000	
2	  N1	11.038	52.878	87.744	N.pl3	1	RES1	0.000	
3	  O1	12.485	51.938	89.264	O.2	1	RES1	0.000	
4	  C2	13.546	50.560	80.972	C.2	1	RES1	0.000	
5	  N2	12.492	54.188	90.817	N.pl3	1	RES1	0.000	
6	  O2	15.442	55.724	89.546	O.3	1	RES1	0.000	
7	  S2	15.501	51.666	82.146	S.2	1	RES1	0.000	
8	  C3	13.896	51.107	82.217	C.2	1	RES1	0.000	
9	  N3	11.098	54.579	94.105	N.pl3	1	RES1	0.000	
10	  O3	10.360	53.799	91.571	O.2	1	RES1	0.000	
11	  C4	13.104	51.231	83.447	C.2	1	RES1	0.000	
12	  O4	12.490	56.346	94.678	O.2	1	RES1	0.000	
13	  C5	12.364	50.134	83.945	C.2	1	RES1	0.000	
14	  C6	11.611	50.277	85.100	C.2	1	RES1	0.000	
15	  N6	14.557	50.643	80.022	N.2	1	RES1	0.000	
16	  C7	11.525	51.496	85.799	C.2	1	RES1	0.000	
17	  C8	10.677	51.656	87.053	C.3	1	RES1	0.000	
18	  C9	9.187	51.600	86.752	C.3	1	RES1	0.000	
19	 C10	11.918	52.939	88.809	C.2	1	RES1	0.000	
20	 C11	12.099	54.317	89.418	C.3	1	RES1	0.000	
21	 C12	13.237	55.114	88.792	C.3	1	RES1	0.000	
22	 C13	14.440	54.710	89.595	C.3	1	RES1	0.000	
23	 C14	13.884	54.523	91.005	C.3	1	RES1	0.000	
24	 C15	11.544	53.935	91.841	C.2	1	RES1	0.000	
25	 C16	12.045	53.856	93.283	C.3	1	RES1	0.000	
26	 C17	11.388	55.790	94.724	C.2	1	RES1	0.000	
27	 C18	10.222	56.393	95.464	C.3	1	RES1	0.000	
28	 C49	12.259	52.390	93.791	C.3	1	RES1	0.000	
29	 C50	10.904	51.683	93.947	C.3	1	RES1	0.000	
30	 C51	12.920	52.421	95.186	C.3	1	RES1	0.000	
31	 C52	13.152	51.561	92.859	C.3	1	RES1	0.000	
32	 C53	12.251	52.577	85.260	C.2	1	RES1	0.000	
33	 C54	13.024	52.450	84.137	C.2	1	RES1	0.000	
34	 C55	15.634	51.209	80.516	C.2	1	RES1	0.000	
@<TRIPOS>BOND
1 1 4 1
2 2 17 1
3 2 19 1
4 3 19 2
5 4 8 ar
6 4 15 ar
7 7 8 ar
8 7 34 ar
9 8 11 1
10 11 13 ar
11 11 33 ar
12 13 14 ar
13 14 16 ar
14 16 17 1
15 17 18 1
16 19 20 1
17 5 20 1
18 20 21 1
19 21 22 1
20 6 22 1
21 22 23 1
22 5 23 1
23 5 24 1
24 10 24 2
25 24 25 1
26 9 25 1
27 25 28 1
28 9 26 1
29 12 26 2
30 26 27 1
31 28 29 1
32 28 30 1
33 28 31 1
34 16 32 ar
35 32 33 ar
36 15 34 ar
@<TRIPOS>SUBSTRUCTURE
1	RES1	1	GROUP	1 ****	RES
