# created with PyMOL 2.5.2
@<TRIPOS>MOLECULE
ER_4W9H_E3ligase
34 36 1                 
SMALL
USER_CHARGES
@<TRIPOS>ATOM
1	  C1	12.263	49.897	80.445	C.3	1	RES1	0.000	
2	  N1	11.266	52.999	87.748	N.pl3	1	RES1	0.000	
3	  O1	12.441	51.795	89.290	O.2	1	RES1	0.000	
4	  C2	13.571	50.431	80.899	C.2	1	RES1	0.000	
5	  N2	12.790	54.055	90.902	N.pl3	1	RES1	0.000	
6	  O2	14.166	56.644	90.286	O.3	1	RES1	0.000	
7	  S2	15.511	51.522	82.117	S.2	1	RES1	0.000	
8	  C3	13.849	51.025	82.113	C.2	1	RES1	0.000	
9	  N3	10.936	54.535	93.964	N.pl3	1	RES1	0.000	
10	  O3	10.547	53.712	91.371	O.2	1	RES1	0.000	
11	  C4	13.017	51.272	83.296	C.2	1	RES1	0.000	
12	  O4	12.174	56.322	94.741	O.2	1	RES1	0.000	
13	  C5	12.170	50.276	83.795	C.2	1	RES1	0.000	
14	  C6	11.417	50.495	84.976	C.2	1	RES1	0.000	
15	  N6	14.640	50.337	80.011	N.2	1	RES1	0.000	
16	  C7	11.517	51.700	85.676	C.2	1	RES1	0.000	
17	  C8	10.724	51.892	86.940	C.3	1	RES1	0.000	
18	  C9	9.214	51.987	86.754	C.3	1	RES1	0.000	
19	 C10	12.102	52.861	88.822	C.2	1	RES1	0.000	
20	 C11	12.532	54.207	89.456	C.3	1	RES1	0.000	
21	 C12	13.858	54.691	88.875	C.3	1	RES1	0.000	
22	 C13	14.588	55.293	90.076	C.3	1	RES1	0.000	
23	 C14	14.130	54.419	91.229	C.3	1	RES1	0.000	
24	 C15	11.703	53.856	91.759	C.2	1	RES1	0.000	
25	 C16	12.021	53.820	93.303	C.3	1	RES1	0.000	
26	 C17	11.090	55.728	94.613	C.2	1	RES1	0.000	
27	 C18	9.827	56.250	95.217	C.3	1	RES1	0.000	
28	 C50	12.252	52.369	93.851	C.3	1	RES1	0.000	
29	 C51	12.476	52.370	95.407	C.3	1	RES1	0.000	
30	 C52	13.484	51.765	93.189	C.3	1	RES1	0.000	
31	 C53	11.059	51.472	93.530	C.3	1	RES1	0.000	
32	 C54	12.417	52.683	85.178	C.2	1	RES1	0.000	
33	 C55	13.127	52.452	84.007	C.2	1	RES1	0.000	
34	 C56	15.703	50.862	80.548	C.2	1	RES1	0.000	
@<TRIPOS>BOND
1 1 4 1
2 2 17 1
3 2 19 1
4 3 19 2
5 4 8 ar
6 4 15 ar
7 7 8 ar
8 7 34 ar
9 8 11 1
10 11 13 ar
11 11 33 ar
12 13 14 ar
13 14 16 ar
14 16 17 1
15 17 18 1
16 19 20 1
17 5 20 1
18 20 21 1
19 21 22 1
20 6 22 1
21 22 23 1
22 5 23 1
23 5 24 1
24 10 24 2
25 24 25 1
26 9 25 1
27 25 28 1
28 9 26 1
29 12 26 2
30 26 27 1
31 28 29 1
32 28 30 1
33 28 31 1
34 16 32 ar
35 32 33 ar
36 15 34 ar
@<TRIPOS>SUBSTRUCTURE
1	RES1	1	GROUP	1 ****	RES
