# created with PyMOL 2.5.2
@<TRIPOS>MOLECULE
ER_4W9H_E3ligase
34 36 1                 
SMALL
USER_CHARGES
@<TRIPOS>ATOM
1	  C1	12.318	49.947	80.513	C.3	1	RES1	0.000	
2	  N1	10.994	52.849	87.757	N.pl3	1	RES1	0.000	
3	  O1	12.403	51.853	89.245	O.2	1	RES1	0.000	
4	  C2	13.596	50.571	80.977	C.2	1	RES1	0.000	
5	  N2	12.517	54.159	90.851	N.pl3	1	RES1	0.000	
6	  O2	15.458	55.661	89.467	O.3	1	RES1	0.000	
7	  S2	15.520	51.673	82.169	S.2	1	RES1	0.000	
8	  C3	13.875	51.131	82.193	C.2	1	RES1	0.000	
9	  N3	11.091	54.621	94.120	N.pl3	1	RES1	0.000	
10	  O3	10.397	53.764	91.601	O.2	1	RES1	0.000	
11	  C4	13.042	51.277	83.393	C.2	1	RES1	0.000	
12	  O4	12.467	56.378	94.652	O.2	1	RES1	0.000	
13	  C5	12.979	52.513	84.081	C.2	1	RES1	0.000	
14	  C6	12.206	52.631	85.224	C.2	1	RES1	0.000	
15	  N6	14.630	50.626	80.020	N.2	1	RES1	0.000	
16	  C7	11.473	51.543	85.728	C.2	1	RES1	0.000	
17	  C8	10.643	51.637	87.020	C.3	1	RES1	0.000	
18	  C9	9.132	51.573	86.793	C.3	1	RES1	0.000	
19	 C10	11.889	52.864	88.784	C.2	1	RES1	0.000	
20	 C11	12.105	54.233	89.452	C.3	1	RES1	0.000	
21	 C12	13.216	54.980	88.746	C.3	1	RES1	0.000	
22	 C13	14.459	54.656	89.598	C.3	1	RES1	0.000	
23	 C14	13.877	54.596	91.032	C.3	1	RES1	0.000	
24	 C15	11.585	53.923	91.878	C.2	1	RES1	0.000	
25	 C16	12.088	53.861	93.330	C.3	1	RES1	0.000	
26	 C17	11.366	55.835	94.708	C.2	1	RES1	0.000	
27	 C18	10.182	56.422	95.404	C.3	1	RES1	0.000	
28	 C51	12.309	52.413	93.872	C.3	1	RES1	0.000	
29	 C52	10.949	51.693	94.012	C.3	1	RES1	0.000	
30	 C53	12.924	52.476	95.287	C.3	1	RES1	0.000	
31	 C54	13.209	51.538	92.978	C.3	1	RES1	0.000	
32	 C55	11.577	50.328	85.069	C.2	1	RES1	0.000	
33	 C56	12.353	50.190	83.900	C.2	1	RES1	0.000	
34	 C57	15.670	51.166	80.572	C.2	1	RES1	0.000	
@<TRIPOS>BOND
1 1 4 1
2 2 17 1
3 2 19 1
4 3 19 2
5 4 8 ar
6 4 15 ar
7 7 8 ar
8 7 34 ar
9 8 11 1
10 11 13 ar
11 11 33 ar
12 13 14 ar
13 14 16 ar
14 16 17 1
15 17 18 1
16 19 20 1
17 5 20 1
18 20 21 1
19 21 22 1
20 6 22 1
21 22 23 1
22 5 23 1
23 5 24 1
24 10 24 2
25 24 25 1
26 9 25 1
27 25 28 1
28 9 26 1
29 12 26 2
30 26 27 1
31 28 29 1
32 28 30 1
33 28 31 1
34 16 32 ar
35 32 33 ar
36 15 34 ar
@<TRIPOS>SUBSTRUCTURE
1	RES1	1	GROUP	1 ****	RES
