# created with PyMOL 2.5.2
@<TRIPOS>MOLECULE
ER_4W9H_E3ligase
34 36 1                 
SMALL
USER_CHARGES
@<TRIPOS>ATOM
1	  C1	12.199	49.905	80.569	C.3	1	RES1	0.000	
2	  N1	11.121	53.052	87.710	N.pl3	1	RES1	0.000	
3	  O1	12.309	51.751	89.228	O.2	1	RES1	0.000	
4	  C2	13.510	50.467	80.969	C.2	1	RES1	0.000	
5	  N2	12.763	54.085	90.862	N.pl3	1	RES1	0.000	
6	  O2	14.139	56.610	89.978	O.3	1	RES1	0.000	
7	  S2	15.517	51.448	82.183	S.2	1	RES1	0.000	
8	  C3	13.864	51.052	82.204	C.2	1	RES1	0.000	
9	  N3	11.107	54.547	94.003	N.pl3	1	RES1	0.000	
10	  O3	10.590	53.660	91.455	O.2	1	RES1	0.000	
11	  C4	13.044	51.298	83.387	C.2	1	RES1	0.000	
12	  O4	12.442	56.297	94.631	O.2	1	RES1	0.000	
13	  C5	13.091	52.503	84.068	C.2	1	RES1	0.000	
14	  C6	12.335	52.749	85.217	C.2	1	RES1	0.000	
15	  N6	14.548	50.375	80.062	N.2	1	RES1	0.000	
16	  C7	11.462	51.756	85.700	C.2	1	RES1	0.000	
17	  C8	10.606	51.960	86.944	C.3	1	RES1	0.000	
18	  C9	9.138	52.187	86.609	C.3	1	RES1	0.000	
19	 C10	11.971	52.849	88.835	C.2	1	RES1	0.000	
20	 C11	12.471	54.179	89.425	C.3	1	RES1	0.000	
21	 C12	13.767	54.572	88.779	C.3	1	RES1	0.000	
22	 C13	14.545	55.261	89.892	C.3	1	RES1	0.000	
23	 C14	14.123	54.491	91.132	C.3	1	RES1	0.000	
24	 C15	11.745	53.846	91.813	C.2	1	RES1	0.000	
25	 C16	12.131	53.782	93.307	C.3	1	RES1	0.000	
26	 C17	11.354	55.754	94.631	C.2	1	RES1	0.000	
27	 C18	10.138	56.363	95.210	C.3	1	RES1	0.000	
28	 C52	12.301	52.300	93.844	C.3	1	RES1	0.000	
29	 C53	10.921	51.621	93.838	C.3	1	RES1	0.000	
30	 C54	12.803	52.327	95.285	C.3	1	RES1	0.000	
31	 C55	13.258	51.482	92.993	C.3	1	RES1	0.000	
32	 C56	11.389	50.521	85.022	C.2	1	RES1	0.000	
33	 C57	12.174	50.291	83.888	C.2	1	RES1	0.000	
34	 C58	15.631	50.859	80.574	C.2	1	RES1	0.000	
@<TRIPOS>BOND
1 1 4 1
2 2 17 1
3 2 19 1
4 3 19 2
5 4 8 ar
6 4 15 ar
7 7 8 ar
8 7 34 ar
9 8 11 1
10 11 13 ar
11 11 33 ar
12 13 14 ar
13 14 16 ar
14 16 17 1
15 17 18 1
16 19 20 1
17 5 20 1
18 20 21 1
19 21 22 1
20 6 22 1
21 22 23 1
22 5 23 1
23 5 24 1
24 10 24 2
25 24 25 1
26 9 25 1
27 25 28 1
28 9 26 1
29 12 26 2
30 26 27 1
31 28 29 1
32 28 30 1
33 28 31 1
34 16 32 ar
35 32 33 ar
36 15 34 ar
@<TRIPOS>SUBSTRUCTURE
1	RES1	1	GROUP	1 ****	RES
