# created with PyMOL 2.5.2
@<TRIPOS>MOLECULE
ER_4W9H_E3ligase
34 36 1                 
SMALL
USER_CHARGES
@<TRIPOS>ATOM
1	  C1	12.263	49.872	80.548	C.3	1	RES1	0.000	
2	  N1	11.207	52.998	87.696	N.pl3	1	RES1	0.000	
3	  O1	12.435	51.794	89.237	O.2	1	RES1	0.000	
4	  C2	13.562	50.464	80.918	C.2	1	RES1	0.000	
5	  N2	12.729	54.039	90.879	N.pl3	1	RES1	0.000	
6	  O2	14.211	56.615	90.319	O.3	1	RES1	0.000	
7	  S2	15.551	51.525	82.080	S.2	1	RES1	0.000	
8	  C3	13.900	51.036	82.165	C.2	1	RES1	0.000	
9	  N3	10.946	54.542	93.969	N.pl3	1	RES1	0.000	
10	  O3	10.521	53.737	91.406	O.2	1	RES1	0.000	
11	  C4	13.096	51.229	83.358	C.2	1	RES1	0.000	
12	  O4	12.252	56.317	94.694	O.2	1	RES1	0.000	
13	  C5	12.297	50.216	83.875	C.2	1	RES1	0.000	
14	  C6	11.534	50.419	85.014	C.2	1	RES1	0.000	
15	  N6	14.564	50.447	79.988	N.2	1	RES1	0.000	
16	  C7	11.566	51.623	85.716	C.2	1	RES1	0.000	
17	  C8	10.720	51.863	86.961	C.3	1	RES1	0.000	
18	  C9	9.234	52.031	86.606	C.3	1	RES1	0.000	
19	 C10	12.050	52.888	88.796	C.2	1	RES1	0.000	
20	 C11	12.482	54.222	89.405	C.3	1	RES1	0.000	
21	 C12	13.798	54.719	88.860	C.3	1	RES1	0.000	
22	 C13	14.570	55.264	90.065	C.3	1	RES1	0.000	
23	 C14	14.120	54.353	91.190	C.3	1	RES1	0.000	
24	 C15	11.684	53.865	91.771	C.2	1	RES1	0.000	
25	 C16	12.011	53.818	93.284	C.3	1	RES1	0.000	
26	 C17	11.161	55.735	94.633	C.2	1	RES1	0.000	
27	 C18	9.932	56.338	95.221	C.3	1	RES1	0.000	
28	 C53	12.205	52.365	93.827	C.3	1	RES1	0.000	
29	 C54	12.419	52.430	95.342	C.3	1	RES1	0.000	
30	 C55	13.466	51.721	93.190	C.3	1	RES1	0.000	
31	 C56	10.994	51.451	93.540	C.3	1	RES1	0.000	
32	 C57	12.351	52.655	85.182	C.2	1	RES1	0.000	
33	 C58	13.109	52.466	84.036	C.2	1	RES1	0.000	
34	 C59	15.664	50.988	80.472	C.2	1	RES1	0.000	
@<TRIPOS>BOND
1 1 4 1
2 2 17 1
3 2 19 1
4 3 19 2
5 4 8 ar
6 4 15 ar
7 7 8 ar
8 7 34 ar
9 8 11 1
10 11 13 ar
11 11 33 ar
12 13 14 ar
13 14 16 ar
14 16 17 1
15 17 18 1
16 19 20 1
17 5 20 1
18 20 21 1
19 21 22 1
20 6 22 1
21 22 23 1
22 5 23 1
23 5 24 1
24 10 24 2
25 24 25 1
26 9 25 1
27 25 28 1
28 9 26 1
29 12 26 2
30 26 27 1
31 28 29 1
32 28 30 1
33 28 31 1
34 16 32 ar
35 32 33 ar
36 15 34 ar
@<TRIPOS>SUBSTRUCTURE
1	RES1	1	GROUP	1 ****	RES
