# created with PyMOL 2.5.2
@<TRIPOS>MOLECULE
BRD2_6H0G_E3ligase
20 22 1                 
SMALL
USER_CHARGES
@<TRIPOS>ATOM
1	  N5	1.981	54.436	-85.588	N.pl3	1	RES1	0.000	
2	  N6	1.719	51.769	-82.119	N.2	1	RES1	0.000	
3	  O6	2.818	53.737	-82.874	O.2	1	RES1	0.000	
4	  N7	1.985	50.072	-78.844	N.pl3	1	RES1	0.000	
5	  O7	3.702	49.708	-77.400	O.2	1	RES1	0.000	
6	  O8	0.214	50.425	-80.175	O.2	1	RES1	0.000	
7	  O9	0.419	49.822	-82.260	O.2	1	RES1	0.000	
8	 C25	1.354	53.198	-85.441	C.2	1	RES1	0.000	
9	 C26	0.515	52.686	-86.475	C.2	1	RES1	0.000	
10	 C27	-0.193	51.512	-86.295	C.2	1	RES1	0.000	
11	 C28	-0.141	50.775	-85.093	C.2	1	RES1	0.000	
12	 C29	0.673	51.328	-84.091	C.2	1	RES1	0.000	
13	 C30	1.347	52.497	-84.240	C.2	1	RES1	0.000	
14	 C31	2.069	52.790	-82.998	C.2	1	RES1	0.000	
15	 C32	2.249	51.633	-80.739	C.3	1	RES1	0.000	
16	 C33	3.713	51.237	-80.680	C.3	1	RES1	0.000	
17	 C34	4.139	51.201	-79.206	C.3	1	RES1	0.000	
18	 C35	3.279	50.247	-78.403	C.2	1	RES1	0.000	
19	 C36	1.366	50.664	-79.933	C.2	1	RES1	0.000	
20	 C37	0.916	50.858	-82.708	C.2	1	RES1	0.000	
@<TRIPOS>BOND
1 1 8 1
2 8 9 ar
3 8 13 ar
4 9 10 ar
5 10 11 ar
6 11 12 ar
7 12 13 ar
8 12 20 ar
9 13 14 ar
10 2 14 ar
11 3 14 2
12 2 15 1
13 15 16 1
14 15 19 1
15 16 17 1
16 17 18 1
17 4 18 1
18 5 18 2
19 4 19 1
20 6 19 2
21 2 20 ar
22 7 20 2
@<TRIPOS>SUBSTRUCTURE
1	RES1	1	GROUP	1 ****	RES
