# created with PyMOL 2.5.2
@<TRIPOS>MOLECULE
ER_5NVV_E3ligase
35 37 1                 
SMALL
USER_CHARGES
@<TRIPOS>ATOM
1	  C1	12.682	49.829	80.770	C.3	1	RES1	0.000	
2	  N1	11.505	53.217	87.891	N.pl3	1	RES1	0.000	
3	  O1	12.737	51.928	89.338	O.2	1	RES1	0.000	
4	  C2	13.963	50.505	81.166	C.2	1	RES1	0.000	
5	  N2	13.161	54.167	91.076	N.pl3	1	RES1	0.000	
6	  O2	14.417	56.818	90.307	O.3	1	RES1	0.000	
7	  S2	15.885	51.642	82.380	S.2	1	RES1	0.000	
8	  C3	14.238	51.125	82.366	C.2	1	RES1	0.000	
9	  N3	11.435	54.424	94.234	N.pl3	1	RES1	0.000	
10	  O3	11.015	53.653	91.644	O.2	1	RES1	0.000	
11	  C4	13.386	51.414	83.539	C.2	1	RES1	0.000	
12	  O4	12.617	56.307	94.811	O.2	1	RES1	0.000	
13	  C5	12.503	50.450	84.043	C.2	1	RES1	0.000	
14	  O5	10.458	57.405	96.112	O.3	1	RES1	0.000	
15	  C6	11.733	50.666	85.175	C.2	1	RES1	0.000	
16	  N6	15.007	50.442	80.288	N.2	1	RES1	0.000	
17	  C7	11.807	51.908	85.862	C.2	1	RES1	0.000	
18	  C8	10.969	52.102	87.137	C.3	1	RES1	0.000	
19	  C9	9.496	52.290	86.791	C.3	1	RES1	0.000	
20	 C10	12.411	53.035	88.943	C.2	1	RES1	0.000	
21	 C11	12.828	54.322	89.643	C.3	1	RES1	0.000	
22	 C12	14.128	54.841	89.008	C.3	1	RES1	0.000	
23	 C13	14.855	55.508	90.124	C.3	1	RES1	0.000	
24	 C14	14.502	54.634	91.350	C.3	1	RES1	0.000	
25	 C15	12.155	53.851	91.989	C.2	1	RES1	0.000	
26	 C16	12.535	53.764	93.507	C.3	1	RES1	0.000	
27	 C17	11.592	55.663	94.801	C.2	1	RES1	0.000	
28	 C18	10.293	56.170	95.472	C.3	1	RES1	0.000	
29	 C49	12.779	52.294	93.977	C.3	1	RES1	0.000	
30	 C50	11.428	51.543	93.973	C.3	1	RES1	0.000	
31	 C51	13.289	52.275	95.417	C.3	1	RES1	0.000	
32	 C52	13.745	51.513	93.090	C.3	1	RES1	0.000	
33	 C53	12.722	52.851	85.374	C.2	1	RES1	0.000	
34	 C54	13.496	52.625	84.249	C.2	1	RES1	0.000	
35	 C55	16.081	50.993	80.800	C.2	1	RES1	0.000	
@<TRIPOS>BOND
1 1 4 1
2 2 18 1
3 2 20 1
4 3 20 2
5 4 8 ar
6 4 16 ar
7 7 8 ar
8 7 35 ar
9 8 11 1
10 11 13 ar
11 11 34 ar
12 13 15 ar
13 15 17 ar
14 17 18 1
15 18 19 1
16 20 21 1
17 5 21 1
18 21 22 1
19 22 23 1
20 6 23 1
21 23 24 1
22 5 24 1
23 5 25 1
24 10 25 2
25 25 26 1
26 9 26 1
27 26 29 1
28 9 27 1
29 12 27 2
30 27 28 1
31 14 28 1
32 29 30 1
33 29 31 1
34 29 32 1
35 17 33 ar
36 33 34 ar
37 16 35 ar
@<TRIPOS>SUBSTRUCTURE
1	RES1	1	GROUP	1 ****	RES
