# created with PyMOL 2.5.2
@<TRIPOS>MOLECULE
ER_5NVV_E3ligase
35 37 1                 
SMALL
USER_CHARGES
@<TRIPOS>ATOM
1	  C1	12.664	49.969	80.796	C.3	1	RES1	0.000	
2	  N1	11.457	53.137	87.930	N.pl3	1	RES1	0.000	
3	  O1	12.702	51.833	89.347	O.2	1	RES1	0.000	
4	  C2	13.964	50.572	81.201	C.2	1	RES1	0.000	
5	  N2	13.096	54.149	91.049	N.pl3	1	RES1	0.000	
6	  O2	14.435	56.711	90.204	O.3	1	RES1	0.000	
7	  S2	15.916	51.722	82.361	S.2	1	RES1	0.000	
8	  C3	14.292	51.178	82.427	C.2	1	RES1	0.000	
9	  N3	11.450	54.455	94.219	N.pl3	1	RES1	0.000	
10	  O3	10.943	53.648	91.622	O.2	1	RES1	0.000	
11	  C4	13.463	51.423	83.617	C.2	1	RES1	0.000	
12	  O4	12.643	56.345	94.809	O.2	1	RES1	0.000	
13	  C5	13.522	52.603	84.300	C.2	1	RES1	0.000	
14	  O5	10.521	57.487	96.132	O.3	1	RES1	0.000	
15	  C6	12.714	52.818	85.422	C.2	1	RES1	0.000	
16	  N6	15.010	50.511	80.279	N.2	1	RES1	0.000	
17	  C7	11.829	51.850	85.900	C.2	1	RES1	0.000	
18	  C8	10.938	52.055	87.123	C.3	1	RES1	0.000	
19	  C9	9.464	52.290	86.745	C.3	1	RES1	0.000	
20	 C10	12.314	52.950	88.977	C.2	1	RES1	0.000	
21	 C11	12.790	54.268	89.621	C.3	1	RES1	0.000	
22	 C12	14.101	54.703	88.953	C.3	1	RES1	0.000	
23	 C13	14.868	55.382	90.062	C.3	1	RES1	0.000	
24	 C14	14.467	54.561	91.307	C.3	1	RES1	0.000	
25	 C15	12.099	53.869	91.972	C.2	1	RES1	0.000	
26	 C16	12.509	53.775	93.468	C.3	1	RES1	0.000	
27	 C17	11.613	55.694	94.800	C.2	1	RES1	0.000	
28	 C18	10.343	56.212	95.454	C.3	1	RES1	0.000	
29	 C51	12.777	52.340	93.970	C.3	1	RES1	0.000	
30	 C52	11.435	51.552	94.027	C.3	1	RES1	0.000	
31	 C53	13.357	52.380	95.376	C.3	1	RES1	0.000	
32	 C54	13.741	51.564	93.067	C.3	1	RES1	0.000	
33	 C55	11.749	50.634	85.176	C.2	1	RES1	0.000	
34	 C56	12.565	50.424	84.065	C.2	1	RES1	0.000	
35	 C57	16.067	51.085	80.785	C.2	1	RES1	0.000	
@<TRIPOS>BOND
1 1 4 1
2 2 18 1
3 2 20 1
4 3 20 2
5 4 8 ar
6 4 16 ar
7 7 8 ar
8 7 35 ar
9 8 11 1
10 11 13 ar
11 11 34 ar
12 13 15 ar
13 15 17 ar
14 17 18 1
15 18 19 1
16 20 21 1
17 5 21 1
18 21 22 1
19 22 23 1
20 6 23 1
21 23 24 1
22 5 24 1
23 5 25 1
24 10 25 2
25 25 26 1
26 9 26 1
27 26 29 1
28 9 27 1
29 12 27 2
30 27 28 1
31 14 28 1
32 29 30 1
33 29 31 1
34 29 32 1
35 17 33 ar
36 33 34 ar
37 16 35 ar
@<TRIPOS>SUBSTRUCTURE
1	RES1	1	GROUP	1 ****	RES
