# created with PyMOL 2.5.2
@<TRIPOS>MOLECULE
ER_5NVV_E3ligase
35 37 1                 
SMALL
USER_CHARGES
@<TRIPOS>ATOM
1	  C1	12.606	49.929	80.804	C.3	1	RES1	0.000	
2	  N1	11.501	53.203	87.919	N.pl3	1	RES1	0.000	
3	  O1	12.833	51.940	89.303	O.2	1	RES1	0.000	
4	  C2	13.910	50.501	81.201	C.2	1	RES1	0.000	
5	  N2	13.112	54.187	91.036	N.pl3	1	RES1	0.000	
6	  O2	14.497	56.790	90.353	O.3	1	RES1	0.000	
7	  S2	15.904	51.660	82.311	S.2	1	RES1	0.000	
8	  C3	14.276	51.139	82.404	C.2	1	RES1	0.000	
9	  N3	11.415	54.428	94.215	N.pl3	1	RES1	0.000	
10	  O3	10.971	53.655	91.595	O.2	1	RES1	0.000	
11	  C4	13.466	51.389	83.614	C.2	1	RES1	0.000	
12	  O4	12.612	56.304	94.835	O.2	1	RES1	0.000	
13	  C5	13.516	52.622	84.260	C.2	1	RES1	0.000	
14	  O5	10.445	57.405	96.158	O.3	1	RES1	0.000	
15	  C6	12.724	52.855	85.405	C.2	1	RES1	0.000	
16	  N6	14.944	50.408	80.261	N.2	1	RES1	0.000	
17	  C7	11.871	51.868	85.871	C.2	1	RES1	0.000	
18	  C8	10.995	52.099	87.134	C.3	1	RES1	0.000	
19	  C9	9.494	52.322	86.777	C.3	1	RES1	0.000	
20	 C10	12.372	53.016	88.965	C.2	1	RES1	0.000	
21	 C11	12.798	54.343	89.642	C.3	1	RES1	0.000	
22	 C12	14.083	54.863	88.979	C.3	1	RES1	0.000	
23	 C13	14.899	55.434	90.120	C.3	1	RES1	0.000	
24	 C14	14.493	54.596	91.319	C.3	1	RES1	0.000	
25	 C15	12.143	53.869	91.959	C.2	1	RES1	0.000	
26	 C16	12.496	53.779	93.466	C.3	1	RES1	0.000	
27	 C17	11.545	55.674	94.822	C.2	1	RES1	0.000	
28	 C18	10.265	56.152	95.490	C.3	1	RES1	0.000	
29	 C53	12.775	52.300	93.946	C.3	1	RES1	0.000	
30	 C54	11.434	51.513	93.914	C.3	1	RES1	0.000	
31	 C55	13.288	52.304	95.390	C.3	1	RES1	0.000	
32	 C56	13.779	51.585	93.050	C.3	1	RES1	0.000	
33	 C57	11.797	50.653	85.215	C.2	1	RES1	0.000	
34	 C58	12.565	50.411	84.110	C.2	1	RES1	0.000	
35	 C59	16.023	50.987	80.753	C.2	1	RES1	0.000	
@<TRIPOS>BOND
1 1 4 1
2 2 18 1
3 2 20 1
4 3 20 2
5 4 8 ar
6 4 16 ar
7 7 8 ar
8 7 35 ar
9 8 11 1
10 11 13 ar
11 11 34 ar
12 13 15 ar
13 15 17 ar
14 17 18 1
15 18 19 1
16 20 21 1
17 5 21 1
18 21 22 1
19 22 23 1
20 6 23 1
21 23 24 1
22 5 24 1
23 5 25 1
24 10 25 2
25 25 26 1
26 9 26 1
27 26 29 1
28 9 27 1
29 12 27 2
30 27 28 1
31 14 28 1
32 29 30 1
33 29 31 1
34 29 32 1
35 17 33 ar
36 33 34 ar
37 16 35 ar
@<TRIPOS>SUBSTRUCTURE
1	RES1	1	GROUP	1 ****	RES
