# created with PyMOL 2.5.2
@<TRIPOS>MOLECULE
ER_5NVV_E3ligase
35 37 1                 
SMALL
USER_CHARGES
@<TRIPOS>ATOM
1	  C1	12.635	49.847	80.804	C.3	1	RES1	0.000	
2	  N1	11.523	53.228	87.898	N.pl3	1	RES1	0.000	
3	  O1	12.833	51.948	89.270	O.2	1	RES1	0.000	
4	  C2	13.928	50.490	81.183	C.2	1	RES1	0.000	
5	  N2	13.123	54.163	91.057	N.pl3	1	RES1	0.000	
6	  O2	14.414	56.825	90.318	O.3	1	RES1	0.000	
7	  S2	15.918	51.598	82.323	S.2	1	RES1	0.000	
8	  C3	14.260	51.114	82.410	C.2	1	RES1	0.000	
9	  N3	11.414	54.412	94.205	N.pl3	1	RES1	0.000	
10	  O3	10.964	53.627	91.596	O.2	1	RES1	0.000	
11	  C4	13.473	51.354	83.601	C.2	1	RES1	0.000	
12	  O4	12.626	56.286	94.835	O.2	1	RES1	0.000	
13	  C5	13.529	52.610	84.234	C.2	1	RES1	0.000	
14	  O5	10.483	57.413	96.148	O.3	1	RES1	0.000	
15	  C6	12.747	52.863	85.386	C.2	1	RES1	0.000	
16	  N6	14.919	50.456	80.245	N.2	1	RES1	0.000	
17	  C7	11.843	51.895	85.854	C.2	1	RES1	0.000	
18	  C8	10.997	52.144	87.097	C.3	1	RES1	0.000	
19	  C9	9.513	52.379	86.757	C.3	1	RES1	0.000	
20	 C10	12.381	53.040	88.943	C.2	1	RES1	0.000	
21	 C11	12.814	54.343	89.633	C.3	1	RES1	0.000	
22	 C12	14.147	54.826	89.000	C.3	1	RES1	0.000	
23	 C13	14.850	55.462	90.146	C.3	1	RES1	0.000	
24	 C14	14.457	54.627	91.362	C.3	1	RES1	0.000	
25	 C15	12.114	53.859	91.968	C.2	1	RES1	0.000	
26	 C16	12.483	53.751	93.473	C.3	1	RES1	0.000	
27	 C17	11.578	55.676	94.810	C.2	1	RES1	0.000	
28	 C18	10.326	56.163	95.472	C.3	1	RES1	0.000	
29	 C55	12.726	52.292	93.988	C.3	1	RES1	0.000	
30	 C56	11.434	51.518	94.059	C.3	1	RES1	0.000	
31	 C57	13.345	52.356	95.421	C.3	1	RES1	0.000	
32	 C58	13.719	51.524	93.080	C.3	1	RES1	0.000	
33	 C59	11.764	50.676	85.196	C.2	1	RES1	0.000	
34	 C60	12.575	50.432	84.081	C.2	1	RES1	0.000	
35	 C61	16.007	51.043	80.722	C.2	1	RES1	0.000	
@<TRIPOS>BOND
1 1 4 1
2 2 18 1
3 2 20 1
4 3 20 2
5 4 8 ar
6 4 16 ar
7 7 8 ar
8 7 35 ar
9 8 11 1
10 11 13 ar
11 11 34 ar
12 13 15 ar
13 15 17 ar
14 16 35 ar
15 17 18 1
16 18 19 1
17 20 21 1
18 5 21 1
19 21 22 1
20 22 23 1
21 6 23 1
22 23 24 1
23 5 24 1
24 5 25 1
25 10 25 2
26 25 26 1
27 9 26 1
28 26 29 1
29 9 27 1
30 12 27 2
31 27 28 1
32 14 28 1
33 29 30 1
34 29 31 1
35 29 32 1
36 17 33 ar
37 33 34 ar
@<TRIPOS>SUBSTRUCTURE
1	RES1	1	GROUP	1 ****	RES
