# created with PyMOL 2.5.2
@<TRIPOS>MOLECULE
ER_5NVV_E3ligase
35 37 1                 
SMALL
USER_CHARGES
@<TRIPOS>ATOM
1	  C1	12.735	49.940	80.760	C.3	1	RES1	0.000	
2	  N1	11.440	53.081	87.908	N.pl3	1	RES1	0.000	
3	  O1	12.811	51.889	89.359	O.2	1	RES1	0.000	
4	  C2	13.978	50.588	81.182	C.2	1	RES1	0.000	
5	  N2	13.054	54.137	91.018	N.pl3	1	RES1	0.000	
6	  O2	14.411	56.771	90.469	O.3	1	RES1	0.000	
7	  S2	15.912	51.715	82.410	S.2	1	RES1	0.000	
8	  C3	14.274	51.176	82.405	C.2	1	RES1	0.000	
9	  N3	11.446	54.488	94.246	N.pl3	1	RES1	0.000	
10	  O3	10.882	53.748	91.605	O.2	1	RES1	0.000	
11	  C4	13.416	51.374	83.608	C.2	1	RES1	0.000	
12	  O4	12.725	56.350	94.755	O.2	1	RES1	0.000	
13	  C5	13.438	52.571	84.299	C.2	1	RES1	0.000	
14	  O5	10.708	57.541	96.167	O.3	1	RES1	0.000	
15	  C6	12.663	52.757	85.449	C.2	1	RES1	0.000	
16	  N6	15.026	50.585	80.275	N.2	1	RES1	0.000	
17	  C7	11.836	51.726	85.933	C.2	1	RES1	0.000	
18	  C8	10.984	51.928	87.167	C.3	1	RES1	0.000	
19	  C9	9.478	52.044	86.814	C.3	1	RES1	0.000	
20	 C10	12.344	52.979	88.959	C.2	1	RES1	0.000	
21	 C11	12.744	54.337	89.578	C.3	1	RES1	0.000	
22	 C12	14.003	54.908	88.980	C.3	1	RES1	0.000	
23	 C13	14.798	55.409	90.157	C.3	1	RES1	0.000	
24	 C14	14.454	54.485	91.299	C.3	1	RES1	0.000	
25	 C15	12.057	53.893	91.929	C.2	1	RES1	0.000	
26	 C16	12.478	53.803	93.453	C.3	1	RES1	0.000	
27	 C17	11.676	55.735	94.819	C.2	1	RES1	0.000	
28	 C18	10.445	56.268	95.518	C.3	1	RES1	0.000	
29	 C57	12.706	52.306	93.911	C.3	1	RES1	0.000	
30	 C58	11.392	51.490	93.943	C.3	1	RES1	0.000	
31	 C59	13.360	52.280	95.276	C.3	1	RES1	0.000	
32	 C60	13.659	51.591	92.910	C.3	1	RES1	0.000	
33	 C61	11.826	50.507	85.216	C.2	1	RES1	0.000	
34	 C62	12.605	50.345	84.073	C.2	1	RES1	0.000	
35	 C63	16.066	51.172	80.800	C.2	1	RES1	0.000	
@<TRIPOS>BOND
1 1 4 1
2 2 18 1
3 2 20 1
4 3 20 2
5 4 8 ar
6 4 16 ar
7 7 8 ar
8 7 35 ar
9 8 11 1
10 11 13 ar
11 11 34 ar
12 13 15 ar
13 15 17 ar
14 16 35 ar
15 17 18 1
16 18 19 1
17 20 21 1
18 5 21 1
19 21 22 1
20 22 23 1
21 6 23 1
22 23 24 1
23 5 24 1
24 5 25 1
25 10 25 2
26 25 26 1
27 9 26 1
28 26 29 1
29 9 27 1
30 12 27 2
31 27 28 1
32 14 28 1
33 29 30 1
34 29 31 1
35 29 32 1
36 17 33 ar
37 33 34 ar
@<TRIPOS>SUBSTRUCTURE
1	RES1	1	GROUP	1 ****	RES
