# created with PyMOL 2.5.2
@<TRIPOS>MOLECULE
ER_5NVV_E3ligase
35 37 1                 
SMALL
USER_CHARGES
@<TRIPOS>ATOM
1	  C1	12.755	49.967	80.686	C.3	1	RES1	0.000	
2	  N1	11.504	53.068	87.905	N.pl3	1	RES1	0.000	
3	  O1	12.832	51.874	89.345	O.2	1	RES1	0.000	
4	  C2	14.032	50.600	81.143	C.2	1	RES1	0.000	
5	  N2	13.045	54.106	91.023	N.pl3	1	RES1	0.000	
6	  O2	14.371	56.761	90.479	O.3	1	RES1	0.000	
7	  S2	15.952	51.731	82.422	S.2	1	RES1	0.000	
8	  C3	14.275	51.186	82.380	C.2	1	RES1	0.000	
9	  N3	11.393	54.498	94.232	N.pl3	1	RES1	0.000	
10	  O3	10.896	53.691	91.623	O.2	1	RES1	0.000	
11	  C4	13.430	51.393	83.548	C.2	1	RES1	0.000	
12	  O4	12.666	56.338	94.747	O.2	1	RES1	0.000	
13	  C5	13.439	52.604	84.290	C.2	1	RES1	0.000	
14	  O5	10.627	57.552	96.155	O.3	1	RES1	0.000	
15	  C6	12.667	52.762	85.429	C.2	1	RES1	0.000	
16	  N6	15.090	50.602	80.255	N.2	1	RES1	0.000	
17	  C7	11.842	51.715	85.887	C.2	1	RES1	0.000	
18	  C8	11.002	51.917	87.126	C.3	1	RES1	0.000	
19	  C9	9.528	52.079	86.804	C.3	1	RES1	0.000	
20	 C10	12.395	52.911	88.941	C.2	1	RES1	0.000	
21	 C11	12.765	54.300	89.613	C.3	1	RES1	0.000	
22	 C12	14.030	54.872	89.003	C.3	1	RES1	0.000	
23	 C13	14.794	55.417	90.174	C.3	1	RES1	0.000	
24	 C14	14.436	54.487	91.337	C.3	1	RES1	0.000	
25	 C15	12.066	53.888	91.967	C.2	1	RES1	0.000	
26	 C16	12.442	53.796	93.462	C.3	1	RES1	0.000	
27	 C17	11.591	55.729	94.822	C.2	1	RES1	0.000	
28	 C18	10.373	56.295	95.494	C.3	1	RES1	0.000	
29	 C59	12.700	52.332	93.946	C.3	1	RES1	0.000	
30	 C60	11.402	51.460	93.893	C.3	1	RES1	0.000	
31	 C61	13.178	52.368	95.408	C.3	1	RES1	0.000	
32	 C62	13.765	51.635	93.104	C.3	1	RES1	0.000	
33	 C63	11.842	50.513	85.151	C.2	1	RES1	0.000	
34	 C64	12.607	50.365	84.028	C.2	1	RES1	0.000	
35	 C65	16.153	51.140	80.821	C.2	1	RES1	0.000	
@<TRIPOS>BOND
1 1 4 1
2 2 18 1
3 2 20 1
4 3 20 2
5 4 8 ar
6 4 16 ar
7 7 8 ar
8 7 35 ar
9 8 11 1
10 11 13 ar
11 11 34 ar
12 13 15 ar
13 15 17 ar
14 16 35 ar
15 17 18 1
16 18 19 1
17 20 21 1
18 5 21 1
19 21 22 1
20 22 23 1
21 6 23 1
22 23 24 1
23 5 24 1
24 5 25 1
25 10 25 2
26 25 26 1
27 9 26 1
28 26 29 1
29 9 27 1
30 12 27 2
31 27 28 1
32 14 28 1
33 29 30 1
34 29 31 1
35 29 32 1
36 17 33 ar
37 33 34 ar
@<TRIPOS>SUBSTRUCTURE
1	RES1	1	GROUP	1 ****	RES
