# created with PyMOL 2.5.2
@<TRIPOS>MOLECULE
ER_5NVV_E3ligase
35 37 1                 
SMALL
USER_CHARGES
@<TRIPOS>ATOM
1	  C1	12.715	49.966	80.751	C.3	1	RES1	0.000	
2	  N1	11.463	52.997	87.935	N.pl3	1	RES1	0.000	
3	  O1	13.069	52.100	89.341	O.2	1	RES1	0.000	
4	  C2	14.002	50.579	81.132	C.2	1	RES1	0.000	
5	  N2	12.851	54.247	91.067	N.pl3	1	RES1	0.000	
6	  O2	15.778	56.010	89.898	O.3	1	RES1	0.000	
7	  S2	15.913	51.824	82.276	S.2	1	RES1	0.000	
8	  C3	14.324	51.196	82.370	C.2	1	RES1	0.000	
9	  N3	11.346	54.464	94.336	N.pl3	1	RES1	0.000	
10	  O3	10.739	53.694	91.749	O.2	1	RES1	0.000	
11	  C4	13.524	51.376	83.566	C.2	1	RES1	0.000	
12	  O4	12.481	56.389	94.823	O.2	1	RES1	0.000	
13	  C5	12.737	50.324	84.074	C.2	1	RES1	0.000	
14	  O5	10.426	57.440	96.259	O.3	1	RES1	0.000	
15	  C6	11.988	50.492	85.244	C.2	1	RES1	0.000	
16	  N6	15.008	50.602	80.177	N.2	1	RES1	0.000	
17	  C7	11.946	51.702	85.925	C.2	1	RES1	0.000	
18	  C8	11.120	51.811	87.164	C.3	1	RES1	0.000	
19	  C9	9.594	51.677	86.973	C.3	1	RES1	0.000	
20	 C10	12.404	53.056	88.981	C.2	1	RES1	0.000	
21	 C11	12.478	54.411	89.662	C.3	1	RES1	0.000	
22	 C12	13.553	55.321	89.089	C.3	1	RES1	0.000	
23	 C13	14.796	54.964	89.901	C.3	1	RES1	0.000	
24	 C14	14.214	54.649	91.276	C.3	1	RES1	0.000	
25	 C15	11.895	53.914	92.014	C.2	1	RES1	0.000	
26	 C16	12.388	53.854	93.528	C.3	1	RES1	0.000	
27	 C17	11.475	55.708	94.898	C.2	1	RES1	0.000	
28	 C18	10.220	56.166	95.648	C.3	1	RES1	0.000	
29	 C47	12.748	52.395	93.951	C.3	1	RES1	0.000	
30	 C48	11.471	51.533	93.918	C.3	1	RES1	0.000	
31	 C49	13.235	52.398	95.426	C.3	1	RES1	0.000	
32	 C50	13.808	51.714	93.085	C.3	1	RES1	0.000	
33	 C51	12.696	52.741	85.404	C.2	1	RES1	0.000	
34	 C52	13.472	52.607	84.256	C.2	1	RES1	0.000	
35	 C53	16.066	51.210	80.685	C.2	1	RES1	0.000	
@<TRIPOS>BOND
1 1 4 1
2 2 18 1
3 2 20 1
4 3 20 2
5 4 8 ar
6 4 16 ar
7 7 8 ar
8 7 35 ar
9 8 11 1
10 11 13 ar
11 11 34 ar
12 13 15 ar
13 15 17 ar
14 17 18 1
15 18 19 1
16 20 21 1
17 5 21 1
18 21 22 1
19 22 23 1
20 6 23 1
21 23 24 1
22 5 24 1
23 5 25 1
24 10 25 2
25 25 26 1
26 9 26 1
27 26 29 1
28 9 27 1
29 12 27 2
30 27 28 1
31 14 28 1
32 29 30 1
33 29 31 1
34 29 32 1
35 17 33 ar
36 33 34 ar
37 16 35 ar
@<TRIPOS>SUBSTRUCTURE
1	RES1	1	GROUP	1 ****	RES
