# created with PyMOL 2.5.2
@<TRIPOS>MOLECULE
ER_4W9H_E3ligase
34 36 1                 
SMALL
USER_CHARGES
@<TRIPOS>ATOM
1	  C1	12.278	49.972	80.536	C.3	1	RES1	0.000	
2	  N1	11.040	52.858	87.784	N.pl3	1	RES1	0.000	
3	  O1	12.514	51.897	89.210	O.2	1	RES1	0.000	
4	  C2	13.553	50.581	80.939	C.2	1	RES1	0.000	
5	  N2	12.479	54.185	90.875	N.pl3	1	RES1	0.000	
6	  O2	15.449	55.634	89.488	O.3	1	RES1	0.000	
7	  S2	15.523	51.658	82.128	S.2	1	RES1	0.000	
8	  C3	13.890	51.134	82.196	C.2	1	RES1	0.000	
9	  N3	11.080	54.631	94.116	N.pl3	1	RES1	0.000	
10	  O3	10.337	53.798	91.617	O.2	1	RES1	0.000	
11	  C4	13.095	51.248	83.413	C.2	1	RES1	0.000	
12	  O4	12.472	56.373	94.696	O.2	1	RES1	0.000	
13	  C5	13.050	52.465	84.112	C.2	1	RES1	0.000	
14	  C6	12.286	52.573	85.288	C.2	1	RES1	0.000	
15	  N6	14.567	50.640	79.998	N.2	1	RES1	0.000	
16	  C7	11.546	51.506	85.779	C.2	1	RES1	0.000	
17	  C8	10.694	51.647	87.037	C.3	1	RES1	0.000	
18	  C9	9.194	51.531	86.759	C.3	1	RES1	0.000	
19	 C10	11.885	52.883	88.827	C.2	1	RES1	0.000	
20	 C11	12.076	54.273	89.464	C.3	1	RES1	0.000	
21	 C12	13.199	55.026	88.774	C.3	1	RES1	0.000	
22	 C13	14.401	54.636	89.608	C.3	1	RES1	0.000	
23	 C14	13.864	54.526	91.013	C.3	1	RES1	0.000	
24	 C15	11.528	53.932	91.871	C.2	1	RES1	0.000	
25	 C16	12.033	53.868	93.309	C.3	1	RES1	0.000	
26	 C17	11.369	55.849	94.718	C.2	1	RES1	0.000	
27	 C18	10.198	56.426	95.463	C.3	1	RES1	0.000	
28	 C49	12.286	52.432	93.838	C.3	1	RES1	0.000	
29	 C50	10.958	51.670	93.964	C.3	1	RES1	0.000	
30	 C51	12.934	52.467	95.217	C.3	1	RES1	0.000	
31	 C52	13.215	51.599	92.906	C.3	1	RES1	0.000	
32	 C53	11.594	50.298	85.069	C.2	1	RES1	0.000	
33	 C54	12.343	50.166	83.899	C.2	1	RES1	0.000	
34	 C55	15.639	51.178	80.505	C.2	1	RES1	0.000	
@<TRIPOS>BOND
1 1 4 1
2 2 17 1
3 2 19 1
4 3 19 2
5 4 8 ar
6 4 15 ar
7 7 8 ar
8 7 34 ar
9 8 11 1
10 11 13 ar
11 11 33 ar
12 13 14 ar
13 14 16 ar
14 16 17 1
15 17 18 1
16 19 20 1
17 5 20 1
18 20 21 1
19 21 22 1
20 6 22 1
21 22 23 1
22 5 23 1
23 5 24 1
24 10 24 2
25 24 25 1
26 9 25 1
27 25 28 1
28 9 26 1
29 12 26 2
30 26 27 1
31 28 29 1
32 28 30 1
33 28 31 1
34 16 32 ar
35 32 33 ar
36 15 34 ar
@<TRIPOS>SUBSTRUCTURE
1	RES1	1	GROUP	1 ****	RES
