# created with PyMOL 2.5.2
@<TRIPOS>MOLECULE
ER_4W9H_E3ligase
34 36 1                 
SMALL
USER_CHARGES
@<TRIPOS>ATOM
1	  C1	12.197	49.822	80.566	C.3	1	RES1	0.000	
2	  N1	11.163	53.066	87.684	N.pl3	1	RES1	0.000	
3	  O1	12.315	51.834	89.231	O.2	1	RES1	0.000	
4	  C2	13.496	50.414	80.974	C.2	1	RES1	0.000	
5	  N2	12.796	54.104	90.881	N.pl3	1	RES1	0.000	
6	  O2	14.131	56.687	90.105	O.3	1	RES1	0.000	
7	  S2	15.505	51.463	82.126	S.2	1	RES1	0.000	
8	  C3	13.865	50.985	82.189	C.2	1	RES1	0.000	
9	  N3	11.088	54.534	94.019	N.pl3	1	RES1	0.000	
10	  O3	10.614	53.691	91.447	O.2	1	RES1	0.000	
11	  C4	13.054	51.257	83.368	C.2	1	RES1	0.000	
12	  O4	12.441	56.237	94.730	O.2	1	RES1	0.000	
13	  C5	12.154	50.274	83.894	C.2	1	RES1	0.000	
14	  C6	11.368	50.532	84.986	C.2	1	RES1	0.000	
15	  N6	14.515	50.331	80.025	N.2	1	RES1	0.000	
16	  C7	11.448	51.745	85.665	C.2	1	RES1	0.000	
17	  C8	10.623	51.951	86.932	C.3	1	RES1	0.000	
18	  C9	9.126	52.174	86.637	C.3	1	RES1	0.000	
19	 C10	12.013	52.897	88.757	C.2	1	RES1	0.000	
20	 C11	12.474	54.233	89.444	C.3	1	RES1	0.000	
21	 C12	13.784	54.675	88.800	C.3	1	RES1	0.000	
22	 C13	14.556	55.323	89.943	C.3	1	RES1	0.000	
23	 C14	14.137	54.526	91.153	C.3	1	RES1	0.000	
24	 C15	11.767	53.848	91.810	C.2	1	RES1	0.000	
25	 C16	12.116	53.780	93.329	C.3	1	RES1	0.000	
26	 C17	11.346	55.739	94.637	C.2	1	RES1	0.000	
27	 C18	10.105	56.348	95.246	C.3	1	RES1	0.000	
28	 C50	12.287	52.310	93.850	C.3	1	RES1	0.000	
29	 C51	10.914	51.593	93.755	C.3	1	RES1	0.000	
30	 C52	12.714	52.281	95.301	C.3	1	RES1	0.000	
31	 C53	13.303	51.470	93.009	C.3	1	RES1	0.000	
32	 C54	12.325	52.709	85.196	C.2	1	RES1	0.000	
33	 C55	13.133	52.496	84.070	C.2	1	RES1	0.000	
34	 C56	15.623	50.862	80.522	C.2	1	RES1	0.000	
@<TRIPOS>BOND
1 1 4 1
2 2 17 1
3 2 19 1
4 3 19 2
5 4 8 ar
6 4 15 ar
7 7 8 ar
8 7 34 ar
9 8 11 1
10 11 13 ar
11 11 33 ar
12 13 14 ar
13 14 16 ar
14 16 17 1
15 17 18 1
16 19 20 1
17 5 20 1
18 20 21 1
19 21 22 1
20 6 22 1
21 22 23 1
22 5 23 1
23 5 24 1
24 10 24 2
25 24 25 1
26 9 25 1
27 25 28 1
28 9 26 1
29 12 26 2
30 26 27 1
31 28 29 1
32 28 30 1
33 28 31 1
34 16 32 ar
35 32 33 ar
36 15 34 ar
@<TRIPOS>SUBSTRUCTURE
1	RES1	1	GROUP	1 ****	RES
