# created with PyMOL 2.5.2
@<TRIPOS>MOLECULE
ER_4W9H_E3ligase
34 36 1                 
SMALL
USER_CHARGES
@<TRIPOS>ATOM
1	  C1	12.151	50.085	80.510	C.3	1	RES1	0.000	
2	  N1	11.141	53.012	87.734	N.pl3	1	RES1	0.000	
3	  O1	12.325	51.762	89.272	O.2	1	RES1	0.000	
4	  C2	13.487	50.520	80.965	C.2	1	RES1	0.000	
5	  N2	12.747	54.069	90.861	N.pl3	1	RES1	0.000	
6	  O2	14.111	56.640	89.916	O.3	1	RES1	0.000	
7	  S2	15.552	51.401	82.167	S.2	1	RES1	0.000	
8	  C3	13.870	51.032	82.205	C.2	1	RES1	0.000	
9	  N3	11.088	54.547	94.010	N.pl3	1	RES1	0.000	
10	  O3	10.570	53.707	91.464	O.2	1	RES1	0.000	
11	  C4	13.086	51.237	83.431	C.2	1	RES1	0.000	
12	  O4	12.496	56.289	94.675	O.2	1	RES1	0.000	
13	  C5	12.210	50.260	83.868	C.2	1	RES1	0.000	
14	  C6	11.452	50.460	85.032	C.2	1	RES1	0.000	
15	  N6	14.524	50.443	80.029	N.2	1	RES1	0.000	
16	  C7	11.485	51.679	85.724	C.2	1	RES1	0.000	
17	  C8	10.627	51.900	86.960	C.3	1	RES1	0.000	
18	  C9	9.155	52.095	86.659	C.3	1	RES1	0.000	
19	 C10	11.957	52.837	88.813	C.2	1	RES1	0.000	
20	 C11	12.435	54.183	89.417	C.3	1	RES1	0.000	
21	 C12	13.772	54.551	88.757	C.3	1	RES1	0.000	
22	 C13	14.528	55.232	89.873	C.3	1	RES1	0.000	
23	 C14	14.108	54.481	91.118	C.3	1	RES1	0.000	
24	 C15	11.736	53.868	91.814	C.2	1	RES1	0.000	
25	 C16	12.119	53.789	93.297	C.3	1	RES1	0.000	
26	 C17	11.384	55.774	94.634	C.2	1	RES1	0.000	
27	 C18	10.144	56.411	95.261	C.3	1	RES1	0.000	
28	 C51	12.265	52.324	93.843	C.3	1	RES1	0.000	
29	 C52	10.914	51.654	93.833	C.3	1	RES1	0.000	
30	 C53	12.805	52.345	95.267	C.3	1	RES1	0.000	
31	 C54	13.226	51.469	92.983	C.3	1	RES1	0.000	
32	 C55	12.312	52.694	85.225	C.2	1	RES1	0.000	
33	 C56	13.113	52.476	84.097	C.2	1	RES1	0.000	
34	 C57	15.632	50.877	80.573	C.2	1	RES1	0.000	
@<TRIPOS>BOND
1 1 4 1
2 2 17 1
3 2 19 1
4 3 19 2
5 4 8 ar
6 4 15 ar
7 7 8 ar
8 7 34 ar
9 8 11 1
10 11 13 ar
11 11 33 ar
12 13 14 ar
13 14 16 ar
14 16 17 1
15 17 18 1
16 19 20 1
17 5 20 1
18 20 21 1
19 21 22 1
20 6 22 1
21 22 23 1
22 5 23 1
23 5 24 1
24 10 24 2
25 24 25 1
26 9 25 1
27 25 28 1
28 9 26 1
29 12 26 2
30 26 27 1
31 28 29 1
32 28 30 1
33 28 31 1
34 16 32 ar
35 32 33 ar
36 15 34 ar
@<TRIPOS>SUBSTRUCTURE
1	RES1	1	GROUP	1 ****	RES
