# created with PyMOL 2.5.2
@<TRIPOS>MOLECULE
BRD2_6H0G_E3ligase
20 22 1                 
SMALL
USER_CHARGES
@<TRIPOS>ATOM
1	  N5	1.958	54.458	-85.615	N.pl3	1	RES1	0.000	
2	  N6	1.724	51.790	-82.102	N.2	1	RES1	0.000	
3	  O6	2.813	53.765	-82.824	O.2	1	RES1	0.000	
4	  N7	1.990	50.100	-78.874	N.pl3	1	RES1	0.000	
5	  O7	3.674	49.659	-77.429	O.3	1	RES1	0.000	
6	  O8	0.186	50.487	-80.185	O.2	1	RES1	0.000	
7	  O9	0.452	49.799	-82.260	O.2	1	RES1	0.000	
8	 C25	1.330	53.198	-85.438	C.2	1	RES1	0.000	
9	 C26	0.516	52.663	-86.468	C.2	1	RES1	0.000	
10	 C27	-0.178	51.489	-86.288	C.2	1	RES1	0.000	
11	 C28	-0.103	50.759	-85.088	C.2	1	RES1	0.000	
12	 C29	0.672	51.339	-84.061	C.2	1	RES1	0.000	
13	 C30	1.345	52.517	-84.236	C.2	1	RES1	0.000	
14	 C31	2.060	52.802	-82.988	C.2	1	RES1	0.000	
15	 C32	2.240	51.642	-80.726	C.3	1	RES1	0.000	
16	 C33	3.724	51.242	-80.691	C.3	1	RES1	0.000	
17	 C34	4.143	51.154	-79.230	C.3	1	RES1	0.000	
18	 C35	3.295	50.218	-78.432	C.3	1	RES1	0.000	
19	 C36	1.360	50.675	-79.924	C.2	1	RES1	0.000	
20	 C37	0.925	50.836	-82.706	C.2	1	RES1	0.000	
@<TRIPOS>BOND
1 1 8 1
2 8 9 ar
3 8 13 ar
4 9 10 ar
5 10 11 ar
6 11 12 ar
7 12 13 ar
8 12 20 ar
9 13 14 ar
10 2 14 ar
11 3 14 2
12 2 15 1
13 15 16 1
14 15 19 1
15 16 17 1
16 17 18 1
17 4 18 1
18 5 18 1
19 4 19 1
20 6 19 2
21 2 20 ar
22 7 20 2
@<TRIPOS>SUBSTRUCTURE
1	RES1	1	GROUP	1 ****	RES
