# created with PyMOL 2.5.2
@<TRIPOS>MOLECULE
BRD4_6H0G_E3ligase
20 22 1                 
SMALL
USER_CHARGES
@<TRIPOS>ATOM
1	  O3	2.801	53.760	-82.822	O.2	1	RES1	0.000	
2	  O4	3.709	49.695	-77.421	O.2	1	RES1	0.000	
3	  O5	0.185	50.482	-80.158	O.2	1	RES1	0.000	
4	  O6	0.462	49.828	-82.279	O.2	1	RES1	0.000	
5	  N7	1.949	54.445	-85.581	N.pl3	1	RES1	0.000	
6	  N8	1.709	51.784	-82.086	N.2	1	RES1	0.000	
7	  N9	1.986	50.100	-78.859	N.pl3	1	RES1	0.000	
8	 C18	1.346	53.206	-85.429	C.2	1	RES1	0.000	
9	 C19	0.537	52.671	-86.454	C.2	1	RES1	0.000	
10	 C20	-0.171	51.471	-86.314	C.2	1	RES1	0.000	
11	 C21	-0.102	50.772	-85.091	C.2	1	RES1	0.000	
12	 C22	0.673	51.324	-84.074	C.2	1	RES1	0.000	
13	 C23	1.342	52.501	-84.232	C.2	1	RES1	0.000	
14	 C24	2.045	52.788	-82.998	C.2	1	RES1	0.000	
15	 C25	2.227	51.638	-80.731	C.3	1	RES1	0.000	
16	 C26	3.706	51.216	-80.680	C.3	1	RES1	0.000	
17	 C27	4.174	51.157	-79.263	C.3	1	RES1	0.000	
18	 C28	3.300	50.233	-78.414	C.2	1	RES1	0.000	
19	 C29	1.355	50.676	-79.939	C.2	1	RES1	0.000	
20	 C30	0.892	50.846	-82.740	C.2	1	RES1	0.000	
@<TRIPOS>BOND
1 5 8 1
2 8 9 ar
3 8 13 ar
4 9 10 ar
5 10 11 ar
6 11 12 ar
7 12 13 ar
8 12 20 ar
9 13 14 ar
10 1 14 2
11 6 14 ar
12 6 15 1
13 15 16 1
14 15 19 1
15 16 17 1
16 17 18 1
17 2 18 2
18 7 18 1
19 3 19 2
20 7 19 1
21 4 20 2
22 6 20 ar
@<TRIPOS>SUBSTRUCTURE
1	RES1	1	GROUP	1 ****	RES
