# created with PyMOL 2.5.2
@<TRIPOS>MOLECULE
ER_4W9H_E3ligase
34 36 1                 
SMALL
USER_CHARGES
@<TRIPOS>ATOM
1	  C1	12.171	49.930	80.562	C.3	1	RES1	0.000	
2	  N1	11.144	53.028	87.746	N.pl3	1	RES1	0.000	
3	  O1	12.280	51.750	89.284	O.2	1	RES1	0.000	
4	  C2	13.508	50.480	80.960	C.2	1	RES1	0.000	
5	  N2	12.739	54.090	90.858	N.pl3	1	RES1	0.000	
6	  O2	14.147	56.608	89.961	O.3	1	RES1	0.000	
7	  S2	15.529	51.458	82.172	S.2	1	RES1	0.000	
8	  C3	13.865	51.021	82.191	C.2	1	RES1	0.000	
9	  N3	11.106	54.545	94.022	N.pl3	1	RES1	0.000	
10	  O3	10.561	53.703	91.450	O.2	1	RES1	0.000	
11	  C4	13.068	51.240	83.408	C.2	1	RES1	0.000	
12	  O4	12.453	56.296	94.691	O.2	1	RES1	0.000	
13	  C5	13.152	52.449	84.114	C.2	1	RES1	0.000	
14	  C6	12.367	52.661	85.236	C.2	1	RES1	0.000	
15	  N6	14.519	50.440	80.022	N.2	1	RES1	0.000	
16	  C7	11.485	51.715	85.710	C.2	1	RES1	0.000	
17	  C8	10.611	51.927	86.943	C.3	1	RES1	0.000	
18	  C9	9.160	52.167	86.607	C.3	1	RES1	0.000	
19	 C10	11.945	52.864	88.836	C.2	1	RES1	0.000	
20	 C11	12.458	54.187	89.434	C.3	1	RES1	0.000	
21	 C12	13.767	54.558	88.772	C.3	1	RES1	0.000	
22	 C13	14.556	55.247	89.893	C.3	1	RES1	0.000	
23	 C14	14.111	54.481	91.125	C.3	1	RES1	0.000	
24	 C15	11.747	53.862	91.796	C.2	1	RES1	0.000	
25	 C16	12.123	53.807	93.305	C.3	1	RES1	0.000	
26	 C17	11.355	55.766	94.647	C.2	1	RES1	0.000	
27	 C18	10.143	56.382	95.276	C.3	1	RES1	0.000	
28	 C53	12.294	52.341	93.816	C.3	1	RES1	0.000	
29	 C54	10.927	51.626	93.766	C.3	1	RES1	0.000	
30	 C55	12.770	52.323	95.254	C.3	1	RES1	0.000	
31	 C56	13.278	51.524	92.951	C.3	1	RES1	0.000	
32	 C57	11.389	50.500	85.015	C.2	1	RES1	0.000	
33	 C58	12.178	50.269	83.884	C.2	1	RES1	0.000	
34	 C59	15.627	50.944	80.554	C.2	1	RES1	0.000	
@<TRIPOS>BOND
1 1 4 1
2 2 17 1
3 2 19 1
4 3 19 2
5 4 8 ar
6 4 15 ar
7 7 8 ar
8 7 34 ar
9 8 11 1
10 11 13 ar
11 11 33 ar
12 13 14 ar
13 14 16 ar
14 16 17 1
15 17 18 1
16 19 20 1
17 5 20 1
18 20 21 1
19 21 22 1
20 6 22 1
21 22 23 1
22 5 23 1
23 5 24 1
24 10 24 2
25 24 25 1
26 9 25 1
27 25 28 1
28 9 26 1
29 12 26 2
30 26 27 1
31 28 29 1
32 28 30 1
33 28 31 1
34 16 32 ar
35 32 33 ar
36 15 34 ar
@<TRIPOS>SUBSTRUCTURE
1	RES1	1	GROUP	1 ****	RES
