# created with PyMOL 2.5.2
@<TRIPOS>MOLECULE
ER_5NVV_E3ligase
35 37 1                 
SMALL
USER_CHARGES
@<TRIPOS>ATOM
1	  C1	12.632	49.948	80.800	C.3	1	RES1	0.000	
2	  N1	11.498	53.188	87.906	N.pl3	1	RES1	0.000	
3	  O1	12.834	51.925	89.305	O.2	1	RES1	0.000	
4	  C2	13.941	50.525	81.197	C.2	1	RES1	0.000	
5	  N2	13.113	54.166	91.055	N.pl3	1	RES1	0.000	
6	  O2	14.442	56.804	90.363	O.3	1	RES1	0.000	
7	  S2	15.887	51.705	82.330	S.2	1	RES1	0.000	
8	  C3	14.282	51.132	82.394	C.2	1	RES1	0.000	
9	  N3	11.437	54.427	94.219	N.pl3	1	RES1	0.000	
10	  O3	10.958	53.648	91.622	O.2	1	RES1	0.000	
11	  C4	13.468	51.372	83.617	C.2	1	RES1	0.000	
12	  O4	12.645	56.327	94.774	O.2	1	RES1	0.000	
13	  C5	13.515	52.582	84.295	C.2	1	RES1	0.000	
14	  O5	10.552	57.450	96.137	O.3	1	RES1	0.000	
15	  C6	12.714	52.810	85.414	C.2	1	RES1	0.000	
16	  N6	14.955	50.491	80.269	N.2	1	RES1	0.000	
17	  C7	11.866	51.833	85.895	C.2	1	RES1	0.000	
18	  C8	10.990	52.069	87.130	C.3	1	RES1	0.000	
19	  C9	9.535	52.244	86.804	C.3	1	RES1	0.000	
20	 C10	12.363	53.011	88.941	C.2	1	RES1	0.000	
21	 C11	12.774	54.332	89.631	C.3	1	RES1	0.000	
22	 C12	14.046	54.865	88.975	C.3	1	RES1	0.000	
23	 C13	14.866	55.447	90.122	C.3	1	RES1	0.000	
24	 C14	14.476	54.565	91.306	C.3	1	RES1	0.000	
25	 C15	12.120	53.870	91.974	C.2	1	RES1	0.000	
26	 C16	12.505	53.780	93.480	C.3	1	RES1	0.000	
27	 C17	11.622	55.686	94.800	C.2	1	RES1	0.000	
28	 C18	10.341	56.191	95.487	C.3	1	RES1	0.000	
29	 C49	12.736	52.312	93.955	C.3	1	RES1	0.000	
30	 C50	11.369	51.589	93.990	C.3	1	RES1	0.000	
31	 C51	13.290	52.292	95.395	C.3	1	RES1	0.000	
32	 C52	13.694	51.486	93.074	C.3	1	RES1	0.000	
33	 C53	11.805	50.609	85.179	C.2	1	RES1	0.000	
34	 C54	12.594	50.389	84.067	C.2	1	RES1	0.000	
35	 C55	16.026	51.053	80.748	C.2	1	RES1	0.000	
@<TRIPOS>BOND
1 1 4 1
2 2 18 1
3 2 20 1
4 3 20 2
5 4 8 ar
6 4 16 ar
7 7 8 ar
8 7 35 ar
9 8 11 1
10 11 13 ar
11 11 34 ar
12 13 15 ar
13 15 17 ar
14 17 18 1
15 18 19 1
16 20 21 1
17 5 21 1
18 21 22 1
19 22 23 1
20 6 23 1
21 23 24 1
22 5 24 1
23 5 25 1
24 10 25 2
25 25 26 1
26 9 26 1
27 26 29 1
28 9 27 1
29 12 27 2
30 27 28 1
31 14 28 1
32 29 30 1
33 29 31 1
34 29 32 1
35 17 33 ar
36 33 34 ar
37 16 35 ar
@<TRIPOS>SUBSTRUCTURE
1	RES1	1	GROUP	1 ****	RES
