# created with PyMOL 2.5.2
@<TRIPOS>MOLECULE
ER_5NVV_E3ligase
35 37 1                 
SMALL
USER_CHARGES
@<TRIPOS>ATOM
1	  C1	12.631	49.885	80.822	C.3	1	RES1	0.000	
2	  N1	11.506	53.246	87.909	N.pl3	1	RES1	0.000	
3	  O1	12.831	51.936	89.287	O.2	1	RES1	0.000	
4	  C2	13.938	50.536	81.209	C.2	1	RES1	0.000	
5	  N2	13.154	54.159	91.038	N.pl3	1	RES1	0.000	
6	  O2	14.449	56.828	90.302	O.3	1	RES1	0.000	
7	  S2	15.905	51.646	82.366	S.2	1	RES1	0.000	
8	  C3	14.245	51.148	82.435	C.2	1	RES1	0.000	
9	  N3	11.440	54.419	94.190	N.pl3	1	RES1	0.000	
10	  O3	10.995	53.601	91.613	O.2	1	RES1	0.000	
11	  C4	13.440	51.378	83.624	C.2	1	RES1	0.000	
12	  O4	12.612	56.301	94.823	O.2	1	RES1	0.000	
13	  C5	13.480	52.617	84.277	C.2	1	RES1	0.000	
14	  O5	10.497	57.437	96.088	O.3	1	RES1	0.000	
15	  C6	12.707	52.842	85.409	C.2	1	RES1	0.000	
16	  N6	14.963	50.491	80.272	N.2	1	RES1	0.000	
17	  C7	11.823	51.875	85.883	C.2	1	RES1	0.000	
18	  C8	10.961	52.115	87.132	C.3	1	RES1	0.000	
19	  C9	9.483	52.320	86.789	C.3	1	RES1	0.000	
20	 C10	12.393	53.014	88.955	C.2	1	RES1	0.000	
21	 C11	12.816	54.319	89.626	C.3	1	RES1	0.000	
22	 C12	14.123	54.793	89.004	C.3	1	RES1	0.000	
23	 C13	14.870	55.459	90.123	C.3	1	RES1	0.000	
24	 C14	14.478	54.652	91.359	C.3	1	RES1	0.000	
25	 C15	12.142	53.846	91.955	C.2	1	RES1	0.000	
26	 C16	12.540	53.752	93.455	C.3	1	RES1	0.000	
27	 C17	11.578	55.657	94.766	C.2	1	RES1	0.000	
28	 C18	10.302	56.179	95.432	C.3	1	RES1	0.000	
29	 C51	12.753	52.293	93.950	C.3	1	RES1	0.000	
30	 C52	11.391	51.575	93.995	C.3	1	RES1	0.000	
31	 C53	13.332	52.304	95.361	C.3	1	RES1	0.000	
32	 C54	13.701	51.461	93.045	C.3	1	RES1	0.000	
33	 C55	11.773	50.660	85.238	C.2	1	RES1	0.000	
34	 C56	12.550	50.404	84.102	C.2	1	RES1	0.000	
35	 C57	16.039	51.046	80.798	C.2	1	RES1	0.000	
@<TRIPOS>BOND
1 1 4 1
2 2 18 1
3 2 20 1
4 3 20 2
5 4 8 ar
6 4 16 ar
7 7 8 ar
8 7 35 ar
9 8 11 1
10 11 13 ar
11 11 34 ar
12 13 15 ar
13 15 17 ar
14 17 18 1
15 18 19 1
16 20 21 1
17 5 21 1
18 21 22 1
19 22 23 1
20 6 23 1
21 23 24 1
22 5 24 1
23 5 25 1
24 10 25 2
25 25 26 1
26 9 26 1
27 26 29 1
28 9 27 1
29 12 27 2
30 27 28 1
31 14 28 1
32 29 30 1
33 29 31 1
34 29 32 1
35 17 33 ar
36 33 34 ar
37 16 35 ar
@<TRIPOS>SUBSTRUCTURE
1	RES1	1	GROUP	1 ****	RES
