# created with PyMOL 2.5.2
@<TRIPOS>MOLECULE
ER_5NVV_E3ligase
35 37 1                 
SMALL
USER_CHARGES
@<TRIPOS>ATOM
1	  C1	12.806	50.009	80.766	C.3	1	RES1	0.000	
2	  N1	11.400	52.885	87.971	N.pl3	1	RES1	0.000	
3	  O1	12.944	51.945	89.373	O.2	1	RES1	0.000	
4	  C2	14.047	50.719	81.179	C.2	1	RES1	0.000	
5	  N2	12.844	54.191	91.020	N.pl3	1	RES1	0.000	
6	  O2	15.781	55.783	89.782	O.3	1	RES1	0.000	
7	  S2	15.881	52.065	82.318	S.2	1	RES1	0.000	
8	  C3	14.332	51.311	82.418	C.2	1	RES1	0.000	
9	  N3	11.364	54.551	94.291	N.pl3	1	RES1	0.000	
10	  O3	10.729	53.739	91.743	O.2	1	RES1	0.000	
11	  C4	13.511	51.397	83.621	C.2	1	RES1	0.000	
12	  O4	12.540	56.481	94.696	O.2	1	RES1	0.000	
13	  C5	12.794	50.276	84.103	C.2	1	RES1	0.000	
14	  O5	10.493	57.540	96.208	O.3	1	RES1	0.000	
15	  C6	12.033	50.369	85.236	C.2	1	RES1	0.000	
16	  N6	15.069	50.818	80.235	N.2	1	RES1	0.000	
17	  C7	11.932	51.562	85.959	C.2	1	RES1	0.000	
18	  C8	11.077	51.692	87.215	C.3	1	RES1	0.000	
19	  C9	9.565	51.684	86.894	C.3	1	RES1	0.000	
20	 C10	12.322	52.936	88.992	C.2	1	RES1	0.000	
21	 C11	12.471	54.305	89.631	C.3	1	RES1	0.000	
22	 C12	13.569	55.158	88.992	C.3	1	RES1	0.000	
23	 C13	14.832	54.759	89.795	C.3	1	RES1	0.000	
24	 C14	14.241	54.536	91.208	C.3	1	RES1	0.000	
25	 C15	11.903	53.927	92.023	C.2	1	RES1	0.000	
26	 C16	12.409	53.880	93.504	C.3	1	RES1	0.000	
27	 C17	11.519	55.804	94.834	C.2	1	RES1	0.000	
28	 C18	10.305	56.290	95.611	C.3	1	RES1	0.000	
29	 C53	12.709	52.435	93.992	C.3	1	RES1	0.000	
30	 C54	11.421	51.574	93.991	C.3	1	RES1	0.000	
31	 C55	13.228	52.472	95.440	C.3	1	RES1	0.000	
32	 C56	13.753	51.708	93.120	C.3	1	RES1	0.000	
33	 C57	12.619	52.669	85.495	C.2	1	RES1	0.000	
34	 C58	13.411	52.587	84.339	C.2	1	RES1	0.000	
35	 C59	16.062	51.497	80.736	C.2	1	RES1	0.000	
@<TRIPOS>BOND
1 1 4 1
2 2 18 1
3 2 20 1
4 3 20 2
5 4 8 ar
6 4 16 ar
7 7 8 ar
8 7 35 ar
9 8 11 1
10 11 13 ar
11 11 34 ar
12 13 15 ar
13 15 17 ar
14 17 18 1
15 18 19 1
16 20 21 1
17 5 21 1
18 21 22 1
19 22 23 1
20 6 23 1
21 23 24 1
22 5 24 1
23 5 25 1
24 10 25 2
25 25 26 1
26 9 26 1
27 26 29 1
28 9 27 1
29 12 27 2
30 27 28 1
31 14 28 1
32 29 30 1
33 29 31 1
34 29 32 1
35 17 33 ar
36 33 34 ar
37 16 35 ar
@<TRIPOS>SUBSTRUCTURE
1	RES1	1	GROUP	1 ****	RES
