# created with PyMOL 2.5.2
@<TRIPOS>MOLECULE
ER_5NVV_E3ligase
35 37 1                 
SMALL
USER_CHARGES
@<TRIPOS>ATOM
1	  C1	12.799	50.034	80.819	C.3	1	RES1	0.000	
2	  N1	11.331	52.893	87.962	N.pl3	1	RES1	0.000	
3	  O1	12.895	51.961	89.322	O.2	1	RES1	0.000	
4	  C2	14.046	50.712	81.214	C.2	1	RES1	0.000	
5	  N2	12.821	54.208	90.994	N.pl3	1	RES1	0.000	
6	  O2	15.789	55.725	89.681	O.3	1	RES1	0.000	
7	  S2	15.881	52.055	82.373	S.2	1	RES1	0.000	
8	  C3	14.313	51.315	82.448	C.2	1	RES1	0.000	
9	  N3	11.414	54.532	94.286	N.pl3	1	RES1	0.000	
10	  O3	10.719	53.760	91.764	O.2	1	RES1	0.000	
11	  C4	13.503	51.410	83.657	C.2	1	RES1	0.000	
12	  O4	12.632	56.443	94.730	O.2	1	RES1	0.000	
13	  C5	12.811	50.272	84.142	C.2	1	RES1	0.000	
14	  O5	10.698	57.578	96.235	O.3	1	RES1	0.000	
15	  C6	11.997	50.370	85.297	C.2	1	RES1	0.000	
16	  N6	15.040	50.834	80.292	N.2	1	RES1	0.000	
17	  C7	11.874	51.552	85.992	C.2	1	RES1	0.000	
18	  C8	10.998	51.668	87.246	C.3	1	RES1	0.000	
19	  C9	9.505	51.611	86.881	C.3	1	RES1	0.000	
20	 C10	12.271	52.917	88.967	C.2	1	RES1	0.000	
21	 C11	12.415	54.315	89.601	C.3	1	RES1	0.000	
22	 C12	13.538	55.137	88.954	C.3	1	RES1	0.000	
23	 C13	14.765	54.743	89.740	C.3	1	RES1	0.000	
24	 C14	14.238	54.539	91.155	C.3	1	RES1	0.000	
25	 C15	11.898	53.936	92.003	C.2	1	RES1	0.000	
26	 C16	12.400	53.879	93.456	C.3	1	RES1	0.000	
27	 C17	11.602	55.807	94.855	C.2	1	RES1	0.000	
28	 C18	10.414	56.315	95.649	C.3	1	RES1	0.000	
29	 C55	12.731	52.420	93.943	C.3	1	RES1	0.000	
30	 C56	11.440	51.624	94.090	C.3	1	RES1	0.000	
31	 C57	13.441	52.456	95.323	C.3	1	RES1	0.000	
32	 C58	13.653	51.683	92.948	C.3	1	RES1	0.000	
33	 C59	12.563	52.666	85.521	C.2	1	RES1	0.000	
34	 C60	13.364	52.606	84.380	C.2	1	RES1	0.000	
35	 C61	16.056	51.497	80.781	C.2	1	RES1	0.000	
@<TRIPOS>BOND
1 1 4 1
2 2 18 1
3 2 20 1
4 3 20 2
5 4 8 ar
6 4 16 ar
7 7 8 ar
8 7 35 ar
9 8 11 1
10 11 13 ar
11 11 34 ar
12 13 15 ar
13 15 17 ar
14 16 35 ar
15 17 18 1
16 18 19 1
17 20 21 1
18 5 21 1
19 21 22 1
20 22 23 1
21 6 23 1
22 23 24 1
23 5 24 1
24 5 25 1
25 10 25 2
26 25 26 1
27 9 26 1
28 26 29 1
29 9 27 1
30 12 27 2
31 27 28 1
32 14 28 1
33 29 30 1
34 29 31 1
35 29 32 1
36 17 33 ar
37 33 34 ar
@<TRIPOS>SUBSTRUCTURE
1	RES1	1	GROUP	1 ****	RES
