# created with PyMOL 2.5.2
@<TRIPOS>MOLECULE
ER_5NVV_E3ligase
35 37 1                 
SMALL
USER_CHARGES
@<TRIPOS>ATOM
1	  C1	12.768	50.034	80.814	C.3	1	RES1	0.000	
2	  N1	11.349	52.918	87.938	N.pl3	1	RES1	0.000	
3	  O1	12.887	51.950	89.348	O.2	1	RES1	0.000	
4	  C2	14.017	50.723	81.206	C.2	1	RES1	0.000	
5	  N2	12.829	54.200	90.994	N.pl3	1	RES1	0.000	
6	  O2	15.747	55.782	89.723	O.3	1	RES1	0.000	
7	  S2	15.917	51.944	82.392	S.2	1	RES1	0.000	
8	  C3	14.324	51.289	82.455	C.2	1	RES1	0.000	
9	  N3	11.409	54.555	94.271	N.pl3	1	RES1	0.000	
10	  O3	10.711	53.745	91.752	O.2	1	RES1	0.000	
11	  C4	13.528	51.380	83.682	C.2	1	RES1	0.000	
12	  O4	12.650	56.458	94.712	O.2	1	RES1	0.000	
13	  C5	12.796	50.275	84.155	C.2	1	RES1	0.000	
14	  O5	10.647	57.581	96.265	O.3	1	RES1	0.000	
15	  C6	12.005	50.349	85.272	C.2	1	RES1	0.000	
16	  N6	15.007	50.879	80.235	N.2	1	RES1	0.000	
17	  C7	11.879	51.552	85.982	C.2	1	RES1	0.000	
18	  C8	11.007	51.694	87.210	C.3	1	RES1	0.000	
19	  C9	9.510	51.681	86.833	C.3	1	RES1	0.000	
20	 C10	12.277	52.935	88.963	C.2	1	RES1	0.000	
21	 C11	12.427	54.322	89.615	C.3	1	RES1	0.000	
22	 C12	13.523	55.171	88.968	C.3	1	RES1	0.000	
23	 C13	14.766	54.764	89.765	C.3	1	RES1	0.000	
24	 C14	14.237	54.572	91.174	C.3	1	RES1	0.000	
25	 C15	11.900	53.945	92.022	C.2	1	RES1	0.000	
26	 C16	12.406	53.856	93.451	C.3	1	RES1	0.000	
27	 C17	11.623	55.814	94.839	C.2	1	RES1	0.000	
28	 C18	10.421	56.306	95.629	C.3	1	RES1	0.000	
29	 C57	12.705	52.409	93.963	C.3	1	RES1	0.000	
30	 C58	11.463	51.564	94.192	C.3	1	RES1	0.000	
31	 C59	13.507	52.477	95.279	C.3	1	RES1	0.000	
32	 C60	13.613	51.652	92.945	C.3	1	RES1	0.000	
33	 C61	12.599	52.683	85.487	C.2	1	RES1	0.000	
34	 C62	13.362	52.582	84.357	C.2	1	RES1	0.000	
35	 C63	16.050	51.502	80.768	C.2	1	RES1	0.000	
@<TRIPOS>BOND
1 1 4 1
2 2 18 1
3 2 20 1
4 3 20 2
5 4 8 ar
6 4 16 ar
7 7 8 ar
8 7 35 ar
9 8 11 1
10 11 13 ar
11 11 34 ar
12 13 15 ar
13 15 17 ar
14 16 35 ar
15 17 18 1
16 18 19 1
17 20 21 1
18 5 21 1
19 21 22 1
20 22 23 1
21 6 23 1
22 23 24 1
23 5 24 1
24 5 25 1
25 10 25 2
26 25 26 1
27 9 26 1
28 26 29 1
29 9 27 1
30 12 27 2
31 27 28 1
32 14 28 1
33 29 30 1
34 29 31 1
35 29 32 1
36 17 33 ar
37 33 34 ar
@<TRIPOS>SUBSTRUCTURE
1	RES1	1	GROUP	1 ****	RES
