# created with PyMOL 2.5.2
@<TRIPOS>MOLECULE
ER_5NVV_E3ligase
35 37 1                 
SMALL
USER_CHARGES
@<TRIPOS>ATOM
1	  C1	12.787	49.919	80.783	C.3	1	RES1	0.000	
2	  N1	11.441	52.957	87.952	N.pl3	1	RES1	0.000	
3	  O1	13.018	52.039	89.367	O.2	1	RES1	0.000	
4	  C2	14.028	50.654	81.152	C.2	1	RES1	0.000	
5	  N2	12.854	54.211	91.043	N.pl3	1	RES1	0.000	
6	  O2	15.791	55.909	89.837	O.3	1	RES1	0.000	
7	  S2	15.940	51.906	82.338	S.2	1	RES1	0.000	
8	  C3	14.312	51.254	82.409	C.2	1	RES1	0.000	
9	  N3	11.350	54.508	94.281	N.pl3	1	RES1	0.000	
10	  O3	10.747	53.674	91.738	O.2	1	RES1	0.000	
11	  C4	13.527	51.380	83.602	C.2	1	RES1	0.000	
12	  O4	12.500	56.419	94.781	O.2	1	RES1	0.000	
13	  C5	13.443	52.597	84.315	C.2	1	RES1	0.000	
14	  O5	10.459	57.504	96.230	O.3	1	RES1	0.000	
15	  C6	12.649	52.718	85.467	C.2	1	RES1	0.000	
16	  N6	15.019	50.738	80.234	N.2	1	RES1	0.000	
17	  C7	11.905	51.622	85.930	C.2	1	RES1	0.000	
18	  C8	11.068	51.750	87.173	C.3	1	RES1	0.000	
19	  C9	9.537	51.600	87.015	C.3	1	RES1	0.000	
20	 C10	12.364	53.017	88.978	C.2	1	RES1	0.000	
21	 C11	12.482	54.389	89.638	C.3	1	RES1	0.000	
22	 C12	13.571	55.237	89.039	C.3	1	RES1	0.000	
23	 C13	14.795	54.857	89.864	C.3	1	RES1	0.000	
24	 C14	14.241	54.609	91.245	C.3	1	RES1	0.000	
25	 C15	11.918	53.929	92.037	C.2	1	RES1	0.000	
26	 C16	12.402	53.836	93.501	C.3	1	RES1	0.000	
27	 C17	11.496	55.742	94.848	C.2	1	RES1	0.000	
28	 C18	10.273	56.232	95.589	C.3	1	RES1	0.000	
29	 C59	12.727	52.425	93.965	C.3	1	RES1	0.000	
30	 C60	11.460	51.538	93.954	C.3	1	RES1	0.000	
31	 C61	13.236	52.445	95.435	C.3	1	RES1	0.000	
32	 C62	13.794	51.696	93.116	C.3	1	RES1	0.000	
33	 C63	11.957	50.434	85.217	C.2	1	RES1	0.000	
34	 C64	12.739	50.320	84.071	C.2	1	RES1	0.000	
35	 C65	16.061	51.404	80.707	C.2	1	RES1	0.000	
@<TRIPOS>BOND
1 1 4 1
2 2 18 1
3 2 20 1
4 3 20 2
5 4 8 ar
6 4 16 ar
7 7 8 ar
8 7 35 ar
9 8 11 1
10 11 13 ar
11 11 34 ar
12 13 15 ar
13 15 17 ar
14 16 35 ar
15 17 18 1
16 18 19 1
17 20 21 1
18 5 21 1
19 21 22 1
20 22 23 1
21 6 23 1
22 23 24 1
23 5 24 1
24 5 25 1
25 10 25 2
26 25 26 1
27 9 26 1
28 26 29 1
29 9 27 1
30 12 27 2
31 27 28 1
32 14 28 1
33 29 30 1
34 29 31 1
35 29 32 1
36 17 33 ar
37 33 34 ar
@<TRIPOS>SUBSTRUCTURE
1	RES1	1	GROUP	1 ****	RES
