# created with PyMOL 2.5.2
@<TRIPOS>MOLECULE
ER_5NVV_E3ligase
35 37 1                 
SMALL
USER_CHARGES
@<TRIPOS>ATOM
1	  C1	12.845	49.913	80.784	C.3	1	RES1	0.000	
2	  N1	11.357	52.925	87.957	N.pl3	1	RES1	0.000	
3	  O1	12.959	51.972	89.298	O.2	1	RES1	0.000	
4	  C2	14.035	50.679	81.200	C.2	1	RES1	0.000	
5	  N2	12.861	54.239	91.017	N.pl3	1	RES1	0.000	
6	  O2	15.791	55.764	89.716	O.3	1	RES1	0.000	
7	  S2	15.856	51.991	82.397	S.2	1	RES1	0.000	
8	  C3	14.289	51.287	82.432	C.2	1	RES1	0.000	
9	  N3	11.416	54.543	94.303	N.pl3	1	RES1	0.000	
10	  O3	10.748	53.781	91.785	O.2	1	RES1	0.000	
11	  C4	13.438	51.390	83.626	C.2	1	RES1	0.000	
12	  O4	12.630	56.411	94.803	O.2	1	RES1	0.000	
13	  C5	12.737	50.295	84.100	C.2	1	RES1	0.000	
14	  O5	10.594	57.536	96.276	O.3	1	RES1	0.000	
15	  C6	11.977	50.394	85.251	C.2	1	RES1	0.000	
16	  N6	15.065	50.795	80.277	N.2	1	RES1	0.000	
17	  C7	11.858	51.583	85.991	C.2	1	RES1	0.000	
18	  C8	11.012	51.709	87.222	C.3	1	RES1	0.000	
19	  C9	9.518	51.662	86.885	C.3	1	RES1	0.000	
20	 C10	12.303	52.951	88.980	C.2	1	RES1	0.000	
21	 C11	12.431	54.355	89.625	C.3	1	RES1	0.000	
22	 C12	13.560	55.171	88.979	C.3	1	RES1	0.000	
23	 C13	14.791	54.762	89.779	C.3	1	RES1	0.000	
24	 C14	14.254	54.557	91.168	C.3	1	RES1	0.000	
25	 C15	11.917	53.957	92.003	C.2	1	RES1	0.000	
26	 C16	12.415	53.877	93.480	C.3	1	RES1	0.000	
27	 C17	11.588	55.766	94.866	C.2	1	RES1	0.000	
28	 C18	10.355	56.267	95.651	C.3	1	RES1	0.000	
29	 C48	12.763	52.444	93.934	C.3	1	RES1	0.000	
30	 C49	11.449	51.597	94.008	C.3	1	RES1	0.000	
31	 C50	13.389	52.441	95.345	C.3	1	RES1	0.000	
32	 C51	13.702	51.727	92.956	C.3	1	RES1	0.000	
33	 C52	12.543	52.707	85.467	C.2	1	RES1	0.000	
34	 C53	13.354	52.604	84.349	C.2	1	RES1	0.000	
35	 C54	16.068	51.471	80.795	C.2	1	RES1	0.000	
@<TRIPOS>BOND
1 1 4 1
2 2 18 1
3 2 20 1
4 3 20 2
5 4 8 ar
6 4 16 ar
7 7 8 ar
8 7 35 ar
9 8 11 1
10 11 13 ar
11 11 34 ar
12 13 15 ar
13 15 17 ar
14 17 18 1
15 18 19 1
16 20 21 1
17 5 21 1
18 21 22 1
19 22 23 1
20 6 23 1
21 23 24 1
22 5 24 1
23 5 25 1
24 10 25 2
25 25 26 1
26 9 26 1
27 26 29 1
28 9 27 1
29 12 27 2
30 27 28 1
31 14 28 1
32 29 30 1
33 29 31 1
34 29 32 1
35 17 33 ar
36 33 34 ar
37 16 35 ar
@<TRIPOS>SUBSTRUCTURE
1	RES1	1	GROUP	1 ****	RES
