# created with PyMOL 2.5.2
@<TRIPOS>MOLECULE
ER_4W9H_E3ligase
34 36 1                 
SMALL
USER_CHARGES
@<TRIPOS>ATOM
1	  C1	12.315	50.022	80.520	C.3	1	RES1	0.000	
2	  N1	11.043	52.722	87.803	N.pl3	1	RES1	0.000	
3	  O1	12.575	51.786	89.262	O.2	1	RES1	0.000	
4	  C2	13.592	50.649	80.946	C.2	1	RES1	0.000	
5	  N2	12.486	54.139	90.874	N.pl3	1	RES1	0.000	
6	  O2	15.526	55.504	89.547	O.3	1	RES1	0.000	
7	  S2	15.560	51.761	82.136	S.2	1	RES1	0.000	
8	  C3	13.949	51.218	82.175	C.2	1	RES1	0.000	
9	  N3	10.943	54.655	94.062	N.pl3	1	RES1	0.000	
10	  O3	10.349	53.790	91.552	O.2	1	RES1	0.000	
11	  C4	13.145	51.299	83.411	C.2	1	RES1	0.000	
12	  O4	12.208	56.483	94.724	O.2	1	RES1	0.000	
13	  C5	12.454	50.200	83.906	C.2	1	RES1	0.000	
14	  C6	11.697	50.232	85.067	C.2	1	RES1	0.000	
15	  N6	14.620	50.750	79.971	N.2	1	RES1	0.000	
16	  C7	11.589	51.427	85.765	C.2	1	RES1	0.000	
17	  C8	10.770	51.509	87.046	C.3	1	RES1	0.000	
18	  C9	9.272	51.351	86.816	C.3	1	RES1	0.000	
19	 C10	11.939	52.756	88.854	C.2	1	RES1	0.000	
20	 C11	12.146	54.175	89.432	C.3	1	RES1	0.000	
21	 C12	13.298	54.895	88.770	C.3	1	RES1	0.000	
22	 C13	14.486	54.510	89.652	C.3	1	RES1	0.000	
23	 C14	13.886	54.439	91.040	C.3	1	RES1	0.000	
24	 C15	11.518	53.940	91.849	C.2	1	RES1	0.000	
25	 C16	11.997	53.938	93.310	C.3	1	RES1	0.000	
26	 C17	11.134	55.860	94.677	C.2	1	RES1	0.000	
27	 C18	9.891	56.424	95.327	C.3	1	RES1	0.000	
28	 C50	12.237	52.513	93.881	C.3	1	RES1	0.000	
29	 C51	12.649	52.507	95.383	C.3	1	RES1	0.000	
30	 C52	13.370	51.824	93.052	C.3	1	RES1	0.000	
31	 C53	10.981	51.675	93.727	C.3	1	RES1	0.000	
32	 C54	12.304	52.582	85.306	C.2	1	RES1	0.000	
33	 C55	13.045	52.506	84.147	C.2	1	RES1	0.000	
34	 C56	15.668	51.334	80.484	C.2	1	RES1	0.000	
@<TRIPOS>BOND
1 1 4 1
2 2 17 1
3 2 19 1
4 3 19 2
5 4 8 ar
6 4 15 ar
7 7 8 ar
8 7 34 ar
9 8 11 1
10 11 13 ar
11 11 33 ar
12 13 14 ar
13 14 16 ar
14 16 17 1
15 17 18 1
16 19 20 1
17 5 20 1
18 20 21 1
19 21 22 1
20 6 22 1
21 22 23 1
22 5 23 1
23 5 24 1
24 10 24 2
25 24 25 1
26 9 25 1
27 25 28 1
28 9 26 1
29 12 26 2
30 26 27 1
31 28 29 1
32 28 30 1
33 28 31 1
34 16 32 ar
35 32 33 ar
36 15 34 ar
@<TRIPOS>SUBSTRUCTURE
1	RES1	1	GROUP	1 ****	RES
