# created with PyMOL 2.5.2
@<TRIPOS>MOLECULE
BRD4_6H0G_E3ligase
20 22 1                 
SMALL
USER_CHARGES
@<TRIPOS>ATOM
1	  N5	1.958	54.418	-85.602	N.pl3	1	RES1	0.000	
2	  N6	1.725	51.810	-82.100	N.2	1	RES1	0.000	
3	  O6	2.801	53.768	-82.825	O.2	1	RES1	0.000	
4	  N7	1.978	50.078	-78.868	N.pl3	1	RES1	0.000	
5	  O7	3.687	49.640	-77.445	O.3	1	RES1	0.000	
6	  O8	0.189	50.450	-80.208	O.2	1	RES1	0.000	
7	  O9	0.453	49.811	-82.231	O.2	1	RES1	0.000	
8	 C25	1.338	53.219	-85.439	C.2	1	RES1	0.000	
9	 C26	0.529	52.676	-86.479	C.2	1	RES1	0.000	
10	 C27	-0.169	51.466	-86.276	C.2	1	RES1	0.000	
11	 C28	-0.096	50.752	-85.075	C.2	1	RES1	0.000	
12	 C29	0.650	51.327	-84.053	C.2	1	RES1	0.000	
13	 C30	1.359	52.514	-84.254	C.2	1	RES1	0.000	
14	 C31	2.053	52.818	-82.989	C.2	1	RES1	0.000	
15	 C32	2.232	51.660	-80.724	C.3	1	RES1	0.000	
16	 C33	3.710	51.266	-80.681	C.3	1	RES1	0.000	
17	 C34	4.148	51.163	-79.220	C.3	1	RES1	0.000	
18	 C35	3.291	50.224	-78.435	C.3	1	RES1	0.000	
19	 C36	1.391	50.667	-79.963	C.2	1	RES1	0.000	
20	 C37	0.898	50.865	-82.698	C.2	1	RES1	0.000	
@<TRIPOS>BOND
1 1 8 1
2 8 9 ar
3 8 13 ar
4 9 10 ar
5 10 11 ar
6 11 12 ar
7 12 13 ar
8 12 20 ar
9 13 14 ar
10 2 14 ar
11 3 14 2
12 2 15 1
13 15 16 1
14 15 19 1
15 16 17 1
16 17 18 1
17 4 18 1
18 5 18 1
19 4 19 1
20 6 19 2
21 2 20 ar
22 7 20 2
@<TRIPOS>SUBSTRUCTURE
1	RES1	1	GROUP	1 ****	RES
