# created with PyMOL 2.5.2
@<TRIPOS>MOLECULE
ER_4W9H_E3ligase
34 36 1                 
SMALL
USER_CHARGES
@<TRIPOS>ATOM
1	  C1	12.364	49.973	80.471	C.3	1	RES1	0.000	
2	  N1	11.020	52.831	87.773	N.pl3	1	RES1	0.000	
3	  O1	12.480	51.873	89.288	O.2	1	RES1	0.000	
4	  C2	13.612	50.587	80.973	C.2	1	RES1	0.000	
5	  N2	12.489	54.172	90.819	N.pl3	1	RES1	0.000	
6	  O2	15.460	55.625	89.510	O.3	1	RES1	0.000	
7	  S2	15.454	51.780	82.242	S.2	1	RES1	0.000	
8	  C3	13.839	51.146	82.207	C.2	1	RES1	0.000	
9	  N3	11.087	54.630	94.103	N.pl3	1	RES1	0.000	
10	  O3	10.361	53.812	91.592	O.2	1	RES1	0.000	
11	  C4	13.005	51.244	83.404	C.2	1	RES1	0.000	
12	  O4	12.472	56.417	94.636	O.2	1	RES1	0.000	
13	  C5	12.304	50.156	83.940	C.2	1	RES1	0.000	
14	  C6	11.557	50.247	85.121	C.2	1	RES1	0.000	
15	  N6	14.677	50.658	80.081	N.2	1	RES1	0.000	
16	  C7	11.487	51.452	85.808	C.2	1	RES1	0.000	
17	  C8	10.671	51.605	87.079	C.3	1	RES1	0.000	
18	  C9	9.151	51.576	86.773	C.3	1	RES1	0.000	
19	 C10	11.926	52.863	88.827	C.2	1	RES1	0.000	
20	 C11	12.121	54.268	89.421	C.3	1	RES1	0.000	
21	 C12	13.238	55.046	88.766	C.3	1	RES1	0.000	
22	 C13	14.480	54.630	89.597	C.3	1	RES1	0.000	
23	 C14	13.911	54.506	90.978	C.3	1	RES1	0.000	
24	 C15	11.534	53.947	91.846	C.2	1	RES1	0.000	
25	 C16	12.057	53.887	93.277	C.3	1	RES1	0.000	
26	 C17	11.418	55.850	94.686	C.2	1	RES1	0.000	
27	 C18	10.229	56.438	95.421	C.3	1	RES1	0.000	
28	 C51	12.289	52.401	93.796	C.3	1	RES1	0.000	
29	 C52	10.935	51.686	93.900	C.3	1	RES1	0.000	
30	 C53	12.936	52.402	95.166	C.3	1	RES1	0.000	
31	 C54	13.186	51.596	92.814	C.3	1	RES1	0.000	
32	 C55	12.189	52.552	85.306	C.2	1	RES1	0.000	
33	 C56	12.908	52.448	84.147	C.2	1	RES1	0.000	
34	 C57	15.675	51.280	80.636	C.2	1	RES1	0.000	
@<TRIPOS>BOND
1 1 4 1
2 2 17 1
3 2 19 1
4 3 19 2
5 4 8 ar
6 4 15 ar
7 7 8 ar
8 7 34 ar
9 8 11 1
10 11 13 ar
11 11 33 ar
12 13 14 ar
13 14 16 ar
14 16 17 1
15 17 18 1
16 19 20 1
17 5 20 1
18 20 21 1
19 21 22 1
20 6 22 1
21 22 23 1
22 5 23 1
23 5 24 1
24 10 24 2
25 24 25 1
26 9 25 1
27 25 28 1
28 9 26 1
29 12 26 2
30 26 27 1
31 28 29 1
32 28 30 1
33 28 31 1
34 16 32 ar
35 32 33 ar
36 15 34 ar
@<TRIPOS>SUBSTRUCTURE
1	RES1	1	GROUP	1 ****	RES
