# created with PyMOL 2.5.2
@<TRIPOS>MOLECULE
ER_4W9H_E3ligase
34 36 1                 
SMALL
USER_CHARGES
@<TRIPOS>ATOM
1	  C1	12.302	49.959	80.458	C.3	1	RES1	0.000	
2	  N1	11.154	52.896	87.790	N.pl3	1	RES1	0.000	
3	  O1	12.694	51.934	89.233	O.2	1	RES1	0.000	
4	  C2	13.593	50.519	80.896	C.2	1	RES1	0.000	
5	  N2	12.508	54.173	90.888	N.pl3	1	RES1	0.000	
6	  O2	15.509	55.757	89.753	O.3	1	RES1	0.000	
7	  S2	15.526	51.642	82.100	S.2	1	RES1	0.000	
8	  C3	13.898	51.098	82.154	C.2	1	RES1	0.000	
9	  N3	10.894	54.535	94.085	N.pl3	1	RES1	0.000	
10	  O3	10.349	53.697	91.536	O.2	1	RES1	0.000	
11	  C4	13.075	51.270	83.356	C.2	1	RES1	0.000	
12	  O4	12.102	56.407	94.728	O.2	1	RES1	0.000	
13	  C5	13.051	52.490	84.030	C.2	1	RES1	0.000	
14	  C6	12.313	52.643	85.199	C.2	1	RES1	0.000	
15	  N6	14.636	50.498	79.988	N.2	1	RES1	0.000	
16	  C7	11.558	51.572	85.735	C.2	1	RES1	0.000	
17	  C8	10.782	51.689	87.017	C.3	1	RES1	0.000	
18	  C9	9.282	51.515	86.886	C.3	1	RES1	0.000	
19	 C10	12.053	52.916	88.833	C.2	1	RES1	0.000	
20	 C11	12.169	54.309	89.482	C.3	1	RES1	0.000	
21	 C12	13.308	55.112	88.895	C.3	1	RES1	0.000	
22	 C13	14.514	54.728	89.743	C.3	1	RES1	0.000	
23	 C14	13.900	54.533	91.118	C.3	1	RES1	0.000	
24	 C15	11.539	53.900	91.857	C.2	1	RES1	0.000	
25	 C16	11.988	53.872	93.345	C.3	1	RES1	0.000	
26	 C17	11.052	55.768	94.714	C.2	1	RES1	0.000	
27	 C18	9.796	56.250	95.367	C.3	1	RES1	0.000	
28	 C52	12.273	52.451	93.859	C.3	1	RES1	0.000	
29	 C53	12.630	52.457	95.339	C.3	1	RES1	0.000	
30	 C54	13.468	51.845	93.069	C.3	1	RES1	0.000	
31	 C55	11.058	51.499	93.659	C.3	1	RES1	0.000	
32	 C56	11.622	50.347	85.047	C.2	1	RES1	0.000	
33	 C57	12.370	50.179	83.864	C.2	1	RES1	0.000	
34	 C58	15.686	51.072	80.505	C.2	1	RES1	0.000	
@<TRIPOS>BOND
1 1 4 1
2 2 17 1
3 2 19 1
4 3 19 2
5 4 8 ar
6 4 15 ar
7 7 8 ar
8 7 34 ar
9 8 11 1
10 11 13 ar
11 11 33 ar
12 13 14 ar
13 14 16 ar
14 16 17 1
15 17 18 1
16 19 20 1
17 5 20 1
18 20 21 1
19 21 22 1
20 6 22 1
21 22 23 1
22 5 23 1
23 5 24 1
24 10 24 2
25 24 25 1
26 9 25 1
27 25 28 1
28 9 26 1
29 12 26 2
30 26 27 1
31 28 29 1
32 28 30 1
33 28 31 1
34 16 32 ar
35 32 33 ar
36 15 34 ar
@<TRIPOS>SUBSTRUCTURE
1	RES1	1	GROUP	1 ****	RES
