# created with PyMOL 2.5.2
@<TRIPOS>MOLECULE
ER_4W9H_E3ligase
34 36 1                 
SMALL
USER_CHARGES
@<TRIPOS>ATOM
1	  C1	12.164	49.875	80.524	C.3	1	RES1	0.000	
2	  N1	11.197	53.107	87.729	N.pl3	1	RES1	0.000	
3	  O1	12.434	51.799	89.199	O.2	1	RES1	0.000	
4	  C2	13.498	50.424	80.929	C.2	1	RES1	0.000	
5	  N2	12.762	54.103	90.861	N.pl3	1	RES1	0.000	
6	  O2	14.113	56.703	90.020	O.3	1	RES1	0.000	
7	  S2	15.494	51.382	82.160	S.2	1	RES1	0.000	
8	  C3	13.810	51.012	82.174	C.2	1	RES1	0.000	
9	  N3	11.096	54.516	94.021	N.pl3	1	RES1	0.000	
10	  O3	10.601	53.646	91.423	O.2	1	RES1	0.000	
11	  C4	13.014	51.295	83.347	C.2	1	RES1	0.000	
12	  O4	12.431	56.256	94.693	O.2	1	RES1	0.000	
13	  C5	13.088	52.521	84.036	C.2	1	RES1	0.000	
14	  C6	12.318	52.750	85.189	C.2	1	RES1	0.000	
15	  N6	14.540	50.316	80.061	N.2	1	RES1	0.000	
16	  C7	11.463	51.750	85.713	C.2	1	RES1	0.000	
17	  C8	10.662	51.969	86.959	C.3	1	RES1	0.000	
18	  C9	9.160	52.169	86.674	C.3	1	RES1	0.000	
19	 C10	12.024	52.905	88.821	C.2	1	RES1	0.000	
20	 C11	12.474	54.230	89.452	C.3	1	RES1	0.000	
21	 C12	13.793	54.659	88.813	C.3	1	RES1	0.000	
22	 C13	14.543	55.318	89.953	C.3	1	RES1	0.000	
23	 C14	14.127	54.547	91.157	C.3	1	RES1	0.000	
24	 C15	11.755	53.840	91.801	C.2	1	RES1	0.000	
25	 C16	12.117	53.764	93.299	C.3	1	RES1	0.000	
26	 C17	11.346	55.724	94.659	C.2	1	RES1	0.000	
27	 C18	10.110	56.327	95.241	C.3	1	RES1	0.000	
28	 C53	12.275	52.295	93.822	C.3	1	RES1	0.000	
29	 C54	10.892	51.600	93.812	C.3	1	RES1	0.000	
30	 C55	12.761	52.308	95.275	C.3	1	RES1	0.000	
31	 C56	13.247	51.455	92.991	C.3	1	RES1	0.000	
32	 C57	11.418	50.518	85.035	C.2	1	RES1	0.000	
33	 C58	12.154	50.297	83.884	C.2	1	RES1	0.000	
34	 C59	15.647	50.792	80.572	C.2	1	RES1	0.000	
@<TRIPOS>BOND
1 1 4 1
2 2 17 1
3 2 19 1
4 3 19 2
5 4 8 ar
6 4 15 ar
7 7 8 ar
8 7 34 ar
9 8 11 1
10 11 13 ar
11 11 33 ar
12 13 14 ar
13 14 16 ar
14 16 17 1
15 17 18 1
16 19 20 1
17 5 20 1
18 20 21 1
19 21 22 1
20 6 22 1
21 22 23 1
22 5 23 1
23 5 24 1
24 10 24 2
25 24 25 1
26 9 25 1
27 25 28 1
28 9 26 1
29 12 26 2
30 26 27 1
31 28 29 1
32 28 30 1
33 28 31 1
34 16 32 ar
35 32 33 ar
36 15 34 ar
@<TRIPOS>SUBSTRUCTURE
1	RES1	1	GROUP	1 ****	RES
