# created with PyMOL 2.5.2
@<TRIPOS>MOLECULE
ER_4W9H_E3ligase
34 36 1                 
SMALL
USER_CHARGES
@<TRIPOS>ATOM
1	  C1	12.288	49.921	80.471	C.3	1	RES1	0.000	
2	  N1	11.142	52.927	87.763	N.pl3	1	RES1	0.000	
3	  O1	12.638	51.990	89.233	O.2	1	RES1	0.000	
4	  C2	13.585	50.486	80.910	C.2	1	RES1	0.000	
5	  N2	12.498	54.195	90.904	N.pl3	1	RES1	0.000	
6	  O2	15.506	55.771	89.774	O.3	1	RES1	0.000	
7	  S2	15.567	51.614	82.084	S.2	1	RES1	0.000	
8	  C3	13.906	51.078	82.142	C.2	1	RES1	0.000	
9	  N3	10.895	54.504	94.085	N.pl3	1	RES1	0.000	
10	  O3	10.372	53.736	91.535	O.2	1	RES1	0.000	
11	  C4	13.094	51.269	83.330	C.2	1	RES1	0.000	
12	  O4	12.039	56.372	94.771	O.2	1	RES1	0.000	
13	  C5	12.296	50.215	83.829	C.2	1	RES1	0.000	
14	  C6	11.557	50.395	85.010	C.2	1	RES1	0.000	
15	  N6	14.625	50.454	79.993	N.2	1	RES1	0.000	
16	  C7	11.546	51.610	85.710	C.2	1	RES1	0.000	
17	  C8	10.772	51.731	87.000	C.3	1	RES1	0.000	
18	  C9	9.267	51.572	86.848	C.3	1	RES1	0.000	
19	 C10	12.026	52.961	88.822	C.2	1	RES1	0.000	
20	 C11	12.178	54.343	89.469	C.3	1	RES1	0.000	
21	 C12	13.311	55.172	88.892	C.3	1	RES1	0.000	
22	 C13	14.495	54.732	89.759	C.3	1	RES1	0.000	
23	 C14	13.908	54.533	91.131	C.3	1	RES1	0.000	
24	 C15	11.537	53.914	91.840	C.2	1	RES1	0.000	
25	 C16	11.964	53.846	93.330	C.3	1	RES1	0.000	
26	 C17	11.002	55.697	94.741	C.2	1	RES1	0.000	
27	 C18	9.739	56.177	95.398	C.3	1	RES1	0.000	
28	 C54	12.305	52.448	93.838	C.3	1	RES1	0.000	
29	 C55	12.597	52.508	95.367	C.3	1	RES1	0.000	
30	 C56	13.601	51.901	93.158	C.3	1	RES1	0.000	
31	 C57	11.175	51.416	93.628	C.3	1	RES1	0.000	
32	 C58	12.378	52.650	85.208	C.2	1	RES1	0.000	
33	 C59	13.119	52.459	84.025	C.2	1	RES1	0.000	
34	 C60	15.716	50.993	80.500	C.2	1	RES1	0.000	
@<TRIPOS>BOND
1 1 4 1
2 2 17 1
3 2 19 1
4 3 19 2
5 4 8 ar
6 4 15 ar
7 7 8 ar
8 7 34 ar
9 8 11 1
10 11 13 ar
11 11 33 ar
12 13 14 ar
13 14 16 ar
14 15 34 ar
15 16 17 1
16 17 18 1
17 19 20 1
18 5 20 1
19 20 21 1
20 21 22 1
21 6 22 1
22 22 23 1
23 5 23 1
24 5 24 1
25 10 24 2
26 24 25 1
27 9 25 1
28 25 28 1
29 9 26 1
30 12 26 2
31 26 27 1
32 28 29 1
33 28 30 1
34 28 31 1
35 16 32 ar
36 32 33 ar
@<TRIPOS>SUBSTRUCTURE
1	RES1	1	GROUP	1 ****	RES
