# created with PyMOL 2.5.2
@<TRIPOS>MOLECULE
ER_5NVV_E3ligase
35 37 1                 
SMALL
USER_CHARGES
@<TRIPOS>ATOM
1	  C1	12.719	49.850	80.713	C.3	1	RES1	0.000	
2	  N1	11.588	53.257	87.778	N.pl3	1	RES1	0.000	
3	  O1	12.800	51.974	89.254	O.2	1	RES1	0.000	
4	  C2	14.018	50.455	81.070	C.2	1	RES1	0.000	
5	  N2	12.969	54.147	91.092	N.pl3	1	RES1	0.000	
6	  O2	14.408	56.752	90.679	O.3	1	RES1	0.000	
7	  S2	16.015	51.573	82.193	S.2	1	RES1	0.000	
8	  C3	14.366	51.094	82.273	C.2	1	RES1	0.000	
9	  N3	11.366	54.431	94.310	N.pl3	1	RES1	0.000	
10	  O3	10.857	53.658	91.753	O.2	1	RES1	0.000	
11	  C4	13.560	51.372	83.452	C.2	1	RES1	0.000	
12	  O4	12.420	56.446	94.768	O.2	1	RES1	0.000	
13	  C5	13.587	52.600	84.103	C.2	1	RES1	0.000	
14	  O5	10.360	57.412	96.209	O.3	1	RES1	0.000	
15	  C6	12.821	52.867	85.252	C.2	1	RES1	0.000	
16	  N6	15.008	50.395	80.136	N.2	1	RES1	0.000	
17	  C7	11.929	51.888	85.740	C.2	1	RES1	0.000	
18	  C8	11.094	52.136	86.980	C.3	1	RES1	0.000	
19	  C9	9.637	52.358	86.599	C.3	1	RES1	0.000	
20	 C10	12.420	53.076	88.854	C.2	1	RES1	0.000	
21	 C11	12.745	54.338	89.639	C.3	1	RES1	0.000	
22	 C12	14.039	54.918	89.124	C.3	1	RES1	0.000	
23	 C13	14.768	55.413	90.363	C.3	1	RES1	0.000	
24	 C14	14.335	54.443	91.444	C.3	1	RES1	0.000	
25	 C15	12.003	53.848	92.091	C.2	1	RES1	0.000	
26	 C16	12.454	53.792	93.565	C.3	1	RES1	0.000	
27	 C17	11.443	55.705	94.883	C.2	1	RES1	0.000	
28	 C18	10.200	56.125	95.593	C.3	1	RES1	0.000	
29	 C50	12.757	52.363	94.075	C.3	1	RES1	0.000	
30	 C51	11.542	51.426	93.988	C.3	1	RES1	0.000	
31	 C52	13.239	52.393	95.539	C.3	1	RES1	0.000	
32	 C53	13.891	51.705	93.226	C.3	1	RES1	0.000	
33	 C54	11.880	50.663	85.090	C.2	1	RES1	0.000	
34	 C55	12.649	50.391	83.963	C.2	1	RES1	0.000	
35	 C56	16.100	50.945	80.616	C.2	1	RES1	0.000	
@<TRIPOS>BOND
1 1 4 1
2 2 18 1
3 2 20 1
4 3 20 2
5 4 8 ar
6 4 16 ar
7 7 8 ar
8 7 35 ar
9 8 11 1
10 11 13 ar
11 11 34 ar
12 13 15 ar
13 15 17 ar
14 17 18 1
15 18 19 1
16 20 21 1
17 5 21 1
18 21 22 1
19 22 23 1
20 6 23 1
21 23 24 1
22 5 24 1
23 5 25 1
24 10 25 2
25 25 26 1
26 9 26 1
27 26 29 1
28 9 27 1
29 12 27 2
30 27 28 1
31 14 28 1
32 29 30 1
33 29 31 1
34 29 32 1
35 17 33 ar
36 33 34 ar
37 16 35 ar
@<TRIPOS>SUBSTRUCTURE
1	RES1	1	GROUP	1 ****	RES
