# created with PyMOL 2.5.2
@<TRIPOS>MOLECULE
ER_5NVV_E3ligase
35 37 1                 
SMALL
USER_CHARGES
@<TRIPOS>ATOM
1	  C1	12.701	50.015	80.731	C.3	1	RES1	0.000	
2	  N1	11.414	53.081	87.917	N.pl3	1	RES1	0.000	
3	  O1	12.734	51.847	89.348	O.2	1	RES1	0.000	
4	  C2	13.985	50.600	81.195	C.2	1	RES1	0.000	
5	  N2	13.074	54.117	91.027	N.pl3	1	RES1	0.000	
6	  O2	14.467	56.707	90.255	O.3	1	RES1	0.000	
7	  S2	15.910	51.757	82.399	S.2	1	RES1	0.000	
8	  C3	14.277	51.218	82.429	C.2	1	RES1	0.000	
9	  N3	11.461	54.492	94.229	N.pl3	1	RES1	0.000	
10	  O3	10.933	53.642	91.652	O.2	1	RES1	0.000	
11	  C4	13.438	51.416	83.584	C.2	1	RES1	0.000	
12	  O4	12.690	56.370	94.737	O.2	1	RES1	0.000	
13	  C5	13.428	52.633	84.318	C.2	1	RES1	0.000	
14	  O5	10.613	57.523	96.087	O.3	1	RES1	0.000	
15	  C6	12.644	52.819	85.444	C.2	1	RES1	0.000	
16	  N6	15.050	50.562	80.288	N.2	1	RES1	0.000	
17	  C7	11.827	51.790	85.917	C.2	1	RES1	0.000	
18	  C8	10.963	51.951	87.118	C.3	1	RES1	0.000	
19	  C9	9.461	52.154	86.795	C.3	1	RES1	0.000	
20	 C10	12.324	52.927	88.985	C.2	1	RES1	0.000	
21	 C11	12.744	54.250	89.619	C.3	1	RES1	0.000	
22	 C12	14.040	54.730	88.914	C.3	1	RES1	0.000	
23	 C13	14.826	55.345	90.053	C.3	1	RES1	0.000	
24	 C14	14.476	54.502	91.258	C.3	1	RES1	0.000	
25	 C15	12.097	53.869	91.990	C.2	1	RES1	0.000	
26	 C16	12.521	53.796	93.489	C.3	1	RES1	0.000	
27	 C17	11.634	55.742	94.789	C.2	1	RES1	0.000	
28	 C18	10.393	56.284	95.472	C.3	1	RES1	0.000	
29	 C52	12.770	52.325	93.975	C.3	1	RES1	0.000	
30	 C53	11.395	51.593	94.005	C.3	1	RES1	0.000	
31	 C54	13.326	52.308	95.423	C.3	1	RES1	0.000	
32	 C55	13.697	51.534	93.074	C.3	1	RES1	0.000	
33	 C56	11.807	50.588	85.197	C.2	1	RES1	0.000	
34	 C57	12.607	50.388	84.069	C.2	1	RES1	0.000	
35	 C58	16.087	51.141	80.830	C.2	1	RES1	0.000	
@<TRIPOS>BOND
1 1 4 1
2 2 18 1
3 2 20 1
4 3 20 2
5 4 8 ar
6 4 16 ar
7 7 8 ar
8 7 35 ar
9 8 11 1
10 11 13 ar
11 11 34 ar
12 13 15 ar
13 15 17 ar
14 17 18 1
15 18 19 1
16 20 21 1
17 5 21 1
18 21 22 1
19 22 23 1
20 6 23 1
21 23 24 1
22 5 24 1
23 5 25 1
24 10 25 2
25 25 26 1
26 9 26 1
27 26 29 1
28 9 27 1
29 12 27 2
30 27 28 1
31 14 28 1
32 29 30 1
33 29 31 1
34 29 32 1
35 17 33 ar
36 33 34 ar
37 16 35 ar
@<TRIPOS>SUBSTRUCTURE
1	RES1	1	GROUP	1 ****	RES
