# created with PyMOL 2.5.2
@<TRIPOS>MOLECULE
ER_5NVV_E3ligase
35 37 1                 
SMALL
USER_CHARGES
@<TRIPOS>ATOM
1	  C1	12.816	49.991	80.731	C.3	1	RES1	0.000	
2	  N1	11.300	52.909	87.932	N.pl3	1	RES1	0.000	
3	  O1	12.834	51.933	89.346	O.2	1	RES1	0.000	
4	  C2	14.060	50.683	81.180	C.2	1	RES1	0.000	
5	  N2	12.844	54.217	91.038	N.pl3	1	RES1	0.000	
6	  O2	15.711	55.840	89.632	O.3	1	RES1	0.000	
7	  S2	15.896	51.972	82.394	S.2	1	RES1	0.000	
8	  C3	14.311	51.291	82.425	C.2	1	RES1	0.000	
9	  N3	11.443	54.519	94.329	N.pl3	1	RES1	0.000	
10	  O3	10.753	53.747	91.805	O.2	1	RES1	0.000	
11	  C4	13.463	51.410	83.599	C.2	1	RES1	0.000	
12	  O4	12.656	56.413	94.759	O.2	1	RES1	0.000	
13	  C5	12.716	50.313	84.075	C.2	1	RES1	0.000	
14	  O5	10.629	57.552	96.247	O.3	1	RES1	0.000	
15	  C6	11.917	50.433	85.198	C.2	1	RES1	0.000	
16	  N6	15.106	50.755	80.263	N.2	1	RES1	0.000	
17	  C7	11.833	51.652	85.911	C.2	1	RES1	0.000	
18	  C8	10.982	51.722	87.181	C.3	1	RES1	0.000	
19	  C9	9.471	51.614	86.915	C.3	1	RES1	0.000	
20	 C10	12.240	52.937	88.933	C.2	1	RES1	0.000	
21	 C11	12.435	54.310	89.636	C.3	1	RES1	0.000	
22	 C12	13.526	55.121	88.947	C.3	1	RES1	0.000	
23	 C13	14.760	54.781	89.766	C.3	1	RES1	0.000	
24	 C14	14.217	54.705	91.195	C.3	1	RES1	0.000	
25	 C15	11.920	53.928	92.050	C.2	1	RES1	0.000	
26	 C16	12.459	53.849	93.490	C.3	1	RES1	0.000	
27	 C17	11.650	55.766	94.863	C.2	1	RES1	0.000	
28	 C18	10.406	56.286	95.645	C.3	1	RES1	0.000	
29	 C54	12.756	52.405	93.998	C.3	1	RES1	0.000	
30	 C55	11.456	51.647	94.261	C.3	1	RES1	0.000	
31	 C56	13.504	52.467	95.361	C.3	1	RES1	0.000	
32	 C57	13.614	51.592	93.044	C.3	1	RES1	0.000	
33	 C58	12.614	52.728	85.462	C.2	1	RES1	0.000	
34	 C59	13.408	52.594	84.325	C.2	1	RES1	0.000	
35	 C60	16.115	51.388	80.789	C.2	1	RES1	0.000	
@<TRIPOS>BOND
1 1 4 1
2 2 18 1
3 2 20 1
4 3 20 2
5 4 8 ar
6 4 16 ar
7 7 8 ar
8 7 35 ar
9 8 11 1
10 11 13 ar
11 11 34 ar
12 13 15 ar
13 15 17 ar
14 16 35 ar
15 17 18 1
16 18 19 1
17 20 21 1
18 5 21 1
19 21 22 1
20 22 23 1
21 6 23 1
22 23 24 1
23 5 24 1
24 5 25 1
25 10 25 2
26 25 26 1
27 9 26 1
28 26 29 1
29 9 27 1
30 12 27 2
31 27 28 1
32 14 28 1
33 29 30 1
34 29 31 1
35 29 32 1
36 17 33 ar
37 33 34 ar
@<TRIPOS>SUBSTRUCTURE
1	RES1	1	GROUP	1 ****	RES
