# created with PyMOL 2.5.2
@<TRIPOS>MOLECULE
ER_5NVV_E3ligase
35 37 1                 
SMALL
USER_CHARGES
@<TRIPOS>ATOM
1	  C1	12.624	49.872	80.698	C.3	1	RES1	0.000	
2	  N1	11.634	53.271	87.765	N.pl3	1	RES1	0.000	
3	  O1	12.836	52.020	89.289	O.2	1	RES1	0.000	
4	  C2	13.962	50.431	81.069	C.2	1	RES1	0.000	
5	  N2	13.021	54.167	91.113	N.pl3	1	RES1	0.000	
6	  O2	14.384	56.835	90.663	O.3	1	RES1	0.000	
7	  S2	15.963	51.559	82.150	S.2	1	RES1	0.000	
8	  C3	14.351	51.060	82.248	C.2	1	RES1	0.000	
9	  N3	11.346	54.423	94.292	N.pl3	1	RES1	0.000	
10	  O3	10.883	53.663	91.713	O.2	1	RES1	0.000	
11	  C4	13.552	51.352	83.451	C.2	1	RES1	0.000	
12	  O4	12.400	56.396	94.832	O.2	1	RES1	0.000	
13	  C5	12.672	50.413	83.960	C.2	1	RES1	0.000	
14	  O5	10.267	57.342	96.259	O.3	1	RES1	0.000	
15	  C6	11.886	50.645	85.089	C.2	1	RES1	0.000	
16	  N6	14.973	50.319	80.124	N.2	1	RES1	0.000	
17	  C7	11.983	51.922	85.759	C.2	1	RES1	0.000	
18	  C8	11.135	52.176	86.984	C.3	1	RES1	0.000	
19	  C9	9.676	52.409	86.559	C.3	1	RES1	0.000	
20	 C10	12.483	53.096	88.861	C.2	1	RES1	0.000	
21	 C11	12.792	54.366	89.644	C.3	1	RES1	0.000	
22	 C12	14.107	54.988	89.152	C.3	1	RES1	0.000	
23	 C13	14.811	55.487	90.381	C.3	1	RES1	0.000	
24	 C14	14.363	54.538	91.459	C.3	1	RES1	0.000	
25	 C15	12.041	53.856	92.085	C.2	1	RES1	0.000	
26	 C16	12.448	53.793	93.563	C.3	1	RES1	0.000	
27	 C17	11.427	55.684	94.864	C.2	1	RES1	0.000	
28	 C18	10.144	56.063	95.631	C.3	1	RES1	0.000	
29	 C56	12.735	52.343	94.056	C.3	1	RES1	0.000	
30	 C57	11.510	51.413	93.972	C.3	1	RES1	0.000	
31	 C58	13.189	52.380	95.515	C.3	1	RES1	0.000	
32	 C59	13.863	51.707	93.248	C.3	1	RES1	0.000	
33	 C60	12.852	52.866	85.234	C.2	1	RES1	0.000	
34	 C61	13.638	52.588	84.116	C.2	1	RES1	0.000	
35	 C62	16.080	50.839	80.598	C.2	1	RES1	0.000	
@<TRIPOS>BOND
1 1 4 1
2 2 18 1
3 2 20 1
4 3 20 2
5 4 8 ar
6 4 16 ar
7 7 8 ar
8 7 35 ar
9 8 11 1
10 11 13 ar
11 11 34 ar
12 13 15 ar
13 15 17 ar
14 16 35 ar
15 17 18 1
16 18 19 1
17 20 21 1
18 5 21 1
19 21 22 1
20 22 23 1
21 6 23 1
22 23 24 1
23 5 24 1
24 5 25 1
25 10 25 2
26 25 26 1
27 9 26 1
28 26 29 1
29 9 27 1
30 12 27 2
31 27 28 1
32 14 28 1
33 29 30 1
34 29 31 1
35 29 32 1
36 17 33 ar
37 33 34 ar
@<TRIPOS>SUBSTRUCTURE
1	RES1	1	GROUP	1 ****	RES
