# created with PyMOL 2.5.2
@<TRIPOS>MOLECULE
ER_5NVV_E3ligase
35 37 1                 
SMALL
USER_CHARGES
@<TRIPOS>ATOM
1	  C1	12.821	49.954	80.713	C.3	1	RES1	0.000	
2	  N1	11.424	53.102	87.834	N.pl3	1	RES1	0.000	
3	  O1	12.684	51.829	89.297	O.2	1	RES1	0.000	
4	  C2	14.066	50.609	81.126	C.2	1	RES1	0.000	
5	  N2	12.897	54.099	91.031	N.pl3	1	RES1	0.000	
6	  O2	14.396	56.621	90.426	O.3	1	RES1	0.000	
7	  S2	15.992	51.746	82.392	S.2	1	RES1	0.000	
8	  C3	14.331	51.183	82.370	C.2	1	RES1	0.000	
9	  N3	11.441	54.491	94.302	N.pl3	1	RES1	0.000	
10	  O3	10.770	53.710	91.780	O.2	1	RES1	0.000	
11	  C4	13.500	51.360	83.561	C.2	1	RES1	0.000	
12	  O4	12.642	56.443	94.691	O.2	1	RES1	0.000	
13	  C5	13.521	52.581	84.236	C.2	1	RES1	0.000	
14	  O5	10.671	57.599	96.144	O.3	1	RES1	0.000	
15	  C6	12.696	52.775	85.359	C.2	1	RES1	0.000	
16	  N6	15.115	50.625	80.227	N.2	1	RES1	0.000	
17	  C7	11.846	51.799	85.813	C.2	1	RES1	0.000	
18	  C8	10.950	51.980	87.028	C.3	1	RES1	0.000	
19	  C9	9.496	52.210	86.631	C.3	1	RES1	0.000	
20	 C10	12.278	52.914	88.906	C.2	1	RES1	0.000	
21	 C11	12.672	54.274	89.588	C.3	1	RES1	0.000	
22	 C12	14.020	54.699	89.009	C.3	1	RES1	0.000	
23	 C13	14.762	55.254	90.202	C.3	1	RES1	0.000	
24	 C14	14.276	54.381	91.337	C.3	1	RES1	0.000	
25	 C15	11.960	53.853	92.040	C.2	1	RES1	0.000	
26	 C16	12.473	53.809	93.510	C.3	1	RES1	0.000	
27	 C17	11.614	55.777	94.842	C.2	1	RES1	0.000	
28	 C18	10.409	56.304	95.560	C.3	1	RES1	0.000	
29	 C58	12.782	52.344	94.008	C.3	1	RES1	0.000	
30	 C59	11.527	51.494	94.058	C.3	1	RES1	0.000	
31	 C60	13.362	52.439	95.447	C.3	1	RES1	0.000	
32	 C61	13.815	51.695	93.075	C.3	1	RES1	0.000	
33	 C62	11.832	50.563	85.140	C.2	1	RES1	0.000	
34	 C63	12.644	50.364	84.005	C.2	1	RES1	0.000	
35	 C64	16.162	51.188	80.759	C.2	1	RES1	0.000	
@<TRIPOS>BOND
1 1 4 1
2 2 18 1
3 2 20 1
4 3 20 2
5 4 8 ar
6 4 16 ar
7 7 8 ar
8 7 35 ar
9 8 11 1
10 11 13 ar
11 11 34 ar
12 13 15 ar
13 15 17 ar
14 16 35 ar
15 17 18 1
16 18 19 1
17 20 21 1
18 5 21 1
19 21 22 1
20 22 23 1
21 6 23 1
22 23 24 1
23 5 24 1
24 5 25 1
25 10 25 2
26 25 26 1
27 9 26 1
28 26 29 1
29 9 27 1
30 12 27 2
31 27 28 1
32 14 28 1
33 29 30 1
34 29 31 1
35 29 32 1
36 17 33 ar
37 33 34 ar
@<TRIPOS>SUBSTRUCTURE
1	RES1	1	GROUP	1 ****	RES
