# created with PyMOL 2.5.2
@<TRIPOS>MOLECULE
ER_5NVV_E3ligase
35 37 1                 
SMALL
USER_CHARGES
@<TRIPOS>ATOM
1	  C1	12.744	49.920	80.639	C.3	1	RES1	0.000	
2	  N1	11.559	53.214	87.777	N.pl3	1	RES1	0.000	
3	  O1	12.719	51.941	89.302	O.2	1	RES1	0.000	
4	  C2	14.049	50.515	81.057	C.2	1	RES1	0.000	
5	  N2	12.966	54.142	91.065	N.pl3	1	RES1	0.000	
6	  O2	14.381	56.714	90.565	O.3	1	RES1	0.000	
7	  S2	15.995	51.601	82.286	S.2	1	RES1	0.000	
8	  C3	14.321	51.117	82.283	C.2	1	RES1	0.000	
9	  N3	11.390	54.490	94.302	N.pl3	1	RES1	0.000	
10	  O3	10.834	53.644	91.744	O.2	1	RES1	0.000	
11	  C4	13.512	51.335	83.475	C.2	1	RES1	0.000	
12	  O4	12.507	56.412	94.843	O.2	1	RES1	0.000	
13	  C5	12.649	50.361	83.984	C.2	1	RES1	0.000	
14	  O5	10.327	57.370	96.242	O.3	1	RES1	0.000	
15	  C6	11.869	50.620	85.113	C.2	1	RES1	0.000	
16	  N6	15.083	50.491	80.151	N.2	1	RES1	0.000	
17	  C7	11.930	51.831	85.750	C.2	1	RES1	0.000	
18	  C8	11.058	52.077	86.980	C.3	1	RES1	0.000	
19	  C9	9.580	52.341	86.582	C.3	1	RES1	0.000	
20	 C10	12.396	53.039	88.868	C.2	1	RES1	0.000	
21	 C11	12.752	54.318	89.633	C.3	1	RES1	0.000	
22	 C12	14.094	54.821	89.080	C.3	1	RES1	0.000	
23	 C13	14.822	55.365	90.296	C.3	1	RES1	0.000	
24	 C14	14.314	54.468	91.441	C.3	1	RES1	0.000	
25	 C15	12.014	53.878	92.042	C.2	1	RES1	0.000	
26	 C16	12.459	53.828	93.543	C.3	1	RES1	0.000	
27	 C17	11.490	55.724	94.853	C.2	1	RES1	0.000	
28	 C18	10.240	56.128	95.613	C.3	1	RES1	0.000	
29	 C60	12.742	52.400	94.057	C.3	1	RES1	0.000	
30	 C61	11.512	51.480	94.019	C.3	1	RES1	0.000	
31	 C62	13.241	52.485	95.513	C.3	1	RES1	0.000	
32	 C63	13.871	51.715	93.229	C.3	1	RES1	0.000	
33	 C64	12.808	52.822	85.274	C.2	1	RES1	0.000	
34	 C65	13.565	52.580	84.151	C.2	1	RES1	0.000	
35	 C66	16.141	51.031	80.676	C.2	1	RES1	0.000	
@<TRIPOS>BOND
1 1 4 1
2 2 18 1
3 2 20 1
4 3 20 2
5 4 8 ar
6 4 16 ar
7 7 8 ar
8 7 35 ar
9 8 11 1
10 11 13 ar
11 11 34 ar
12 13 15 ar
13 15 17 ar
14 16 35 ar
15 17 18 1
16 18 19 1
17 20 21 1
18 5 21 1
19 21 22 1
20 22 23 1
21 6 23 1
22 23 24 1
23 5 24 1
24 5 25 1
25 10 25 2
26 25 26 1
27 9 26 1
28 26 29 1
29 9 27 1
30 12 27 2
31 27 28 1
32 14 28 1
33 29 30 1
34 29 31 1
35 29 32 1
36 17 33 ar
37 33 34 ar
@<TRIPOS>SUBSTRUCTURE
1	RES1	1	GROUP	1 ****	RES
