# created with PyMOL 2.5.2
@<TRIPOS>MOLECULE
BRD2_6H0G_E3ligase
20 22 1                 
SMALL
USER_CHARGES
@<TRIPOS>ATOM
1	  N5	1.987	54.444	-85.591	N.pl3	1	RES1	0.000	
2	  N6	1.731	51.788	-82.106	N.2	1	RES1	0.000	
3	  O6	2.810	53.748	-82.856	O.2	1	RES1	0.000	
4	  N7	1.979	50.080	-78.866	N.pl3	1	RES1	0.000	
5	  O7	3.680	49.674	-77.419	O.2	1	RES1	0.000	
6	  O8	0.195	50.439	-80.178	O.2	1	RES1	0.000	
7	  O9	0.437	49.819	-82.256	O.2	1	RES1	0.000	
8	 C25	1.329	53.191	-85.422	C.2	1	RES1	0.000	
9	 C26	0.513	52.669	-86.455	C.2	1	RES1	0.000	
10	 C27	-0.168	51.469	-86.278	C.2	1	RES1	0.000	
11	 C28	-0.127	50.772	-85.086	C.2	1	RES1	0.000	
12	 C29	0.648	51.351	-84.051	C.2	1	RES1	0.000	
13	 C30	1.362	52.497	-84.255	C.2	1	RES1	0.000	
14	 C31	2.070	52.796	-83.013	C.2	1	RES1	0.000	
15	 C32	2.241	51.649	-80.748	C.3	1	RES1	0.000	
16	 C33	3.714	51.240	-80.675	C.3	1	RES1	0.000	
17	 C34	4.151	51.191	-79.222	C.3	1	RES1	0.000	
18	 C35	3.269	50.247	-78.429	C.2	1	RES1	0.000	
19	 C36	1.392	50.661	-79.942	C.2	1	RES1	0.000	
20	 C37	0.913	50.868	-82.717	C.2	1	RES1	0.000	
@<TRIPOS>BOND
1 1 8 1
2 8 9 ar
3 8 13 ar
4 9 10 ar
5 10 11 ar
6 11 12 ar
7 12 13 ar
8 12 20 ar
9 13 14 ar
10 2 14 ar
11 3 14 2
12 2 15 1
13 15 16 1
14 15 19 1
15 16 17 1
16 17 18 1
17 4 18 1
18 5 18 2
19 4 19 1
20 6 19 2
21 2 20 ar
22 7 20 2
@<TRIPOS>SUBSTRUCTURE
1	RES1	1	GROUP	1 ****	RES
