# created with PyMOL 2.5.2
@<TRIPOS>MOLECULE
ER_5NVV_E3ligase
35 37 1                 
SMALL
USER_CHARGES
@<TRIPOS>ATOM
1	  C1	12.627	49.899	80.827	C.3	1	RES1	0.000	
2	  N1	11.518	53.218	87.892	N.pl3	1	RES1	0.000	
3	  O1	12.809	51.908	89.277	O.2	1	RES1	0.000	
4	  C2	13.923	50.525	81.207	C.2	1	RES1	0.000	
5	  N2	13.136	54.155	91.054	N.pl3	1	RES1	0.000	
6	  O2	14.430	56.804	90.288	O.3	1	RES1	0.000	
7	  S2	15.923	51.635	82.342	S.2	1	RES1	0.000	
8	  C3	14.264	51.121	82.425	C.2	1	RES1	0.000	
9	  N3	11.401	54.442	94.203	N.pl3	1	RES1	0.000	
10	  O3	10.980	53.628	91.596	O.2	1	RES1	0.000	
11	  C4	13.476	51.367	83.624	C.2	1	RES1	0.000	
12	  O4	12.619	56.310	94.802	O.2	1	RES1	0.000	
13	  C5	13.537	52.582	84.303	C.2	1	RES1	0.000	
14	  O5	10.478	57.416	96.129	O.3	1	RES1	0.000	
15	  C6	12.737	52.833	85.431	C.2	1	RES1	0.000	
16	  N6	14.930	50.511	80.250	N.2	1	RES1	0.000	
17	  C7	11.830	51.866	85.914	C.2	1	RES1	0.000	
18	  C8	10.968	52.129	87.117	C.3	1	RES1	0.000	
19	  C9	9.486	52.360	86.749	C.3	1	RES1	0.000	
20	 C10	12.389	53.041	88.977	C.2	1	RES1	0.000	
21	 C11	12.828	54.334	89.619	C.3	1	RES1	0.000	
22	 C12	14.132	54.820	88.990	C.3	1	RES1	0.000	
23	 C13	14.887	55.467	90.120	C.3	1	RES1	0.000	
24	 C14	14.489	54.624	91.348	C.3	1	RES1	0.000	
25	 C15	12.148	53.860	91.966	C.2	1	RES1	0.000	
26	 C16	12.513	53.744	93.471	C.3	1	RES1	0.000	
27	 C17	11.555	55.664	94.792	C.2	1	RES1	0.000	
28	 C18	10.301	56.168	95.456	C.3	1	RES1	0.000	
29	 C47	12.757	52.298	93.951	C.3	1	RES1	0.000	
30	 C48	11.419	51.556	93.976	C.3	1	RES1	0.000	
31	 C49	13.300	52.301	95.397	C.3	1	RES1	0.000	
32	 C50	13.745	51.526	93.060	C.3	1	RES1	0.000	
33	 C51	11.744	50.656	85.197	C.2	1	RES1	0.000	
34	 C52	12.541	50.413	84.090	C.2	1	RES1	0.000	
35	 C53	16.017	51.049	80.746	C.2	1	RES1	0.000	
@<TRIPOS>BOND
1 1 4 1
2 2 18 1
3 2 20 1
4 3 20 2
5 4 8 ar
6 4 16 ar
7 7 8 ar
8 7 35 ar
9 8 11 1
10 11 13 ar
11 11 34 ar
12 13 15 ar
13 15 17 ar
14 17 18 1
15 18 19 1
16 20 21 1
17 5 21 1
18 21 22 1
19 22 23 1
20 6 23 1
21 23 24 1
22 5 24 1
23 5 25 1
24 10 25 2
25 25 26 1
26 9 26 1
27 26 29 1
28 9 27 1
29 12 27 2
30 27 28 1
31 14 28 1
32 29 30 1
33 29 31 1
34 29 32 1
35 17 33 ar
36 33 34 ar
37 16 35 ar
@<TRIPOS>SUBSTRUCTURE
1	RES1	1	GROUP	1 ****	RES
