# created with PyMOL 2.5.2
@<TRIPOS>MOLECULE
ER_4W9H_E3ligase
34 36 1                 
SMALL
USER_CHARGES
@<TRIPOS>ATOM
1	  C1	12.256	49.939	80.508	C.3	1	RES1	0.000	
2	  N1	11.229	53.033	87.689	N.pl3	1	RES1	0.000	
3	  O1	12.320	51.709	89.224	O.2	1	RES1	0.000	
4	  C2	13.584	50.507	80.925	C.2	1	RES1	0.000	
5	  N2	12.746	54.013	90.881	N.pl3	1	RES1	0.000	
6	  O2	14.112	56.614	90.210	O.3	1	RES1	0.000	
7	  S2	15.558	51.518	82.121	S.2	1	RES1	0.000	
8	  C3	13.904	51.018	82.178	C.2	1	RES1	0.000	
9	  N3	10.968	54.555	93.953	N.pl3	1	RES1	0.000	
10	  O3	10.543	53.666	91.392	O.2	1	RES1	0.000	
11	  C4	13.123	51.209	83.384	C.2	1	RES1	0.000	
12	  O4	12.267	56.311	94.711	O.2	1	RES1	0.000	
13	  C5	12.258	50.214	83.858	C.2	1	RES1	0.000	
14	  C6	11.491	50.443	84.982	C.2	1	RES1	0.000	
15	  N6	14.575	50.491	79.989	N.2	1	RES1	0.000	
16	  C7	11.524	51.639	85.697	C.2	1	RES1	0.000	
17	  C8	10.663	51.911	86.935	C.3	1	RES1	0.000	
18	  C9	9.216	52.165	86.517	C.3	1	RES1	0.000	
19	 C10	12.053	52.833	88.784	C.2	1	RES1	0.000	
20	 C11	12.504	54.153	89.442	C.3	1	RES1	0.000	
21	 C12	13.865	54.632	88.844	C.3	1	RES1	0.000	
22	 C13	14.569	55.255	90.029	C.3	1	RES1	0.000	
23	 C14	14.117	54.372	91.193	C.3	1	RES1	0.000	
24	 C15	11.695	53.845	91.778	C.2	1	RES1	0.000	
25	 C16	12.044	53.817	93.281	C.3	1	RES1	0.000	
26	 C17	11.160	55.769	94.605	C.2	1	RES1	0.000	
27	 C18	9.913	56.355	95.165	C.3	1	RES1	0.000	
28	 C49	12.248	52.397	93.866	C.3	1	RES1	0.000	
29	 C50	12.470	52.419	95.408	C.3	1	RES1	0.000	
30	 C51	13.435	51.732	93.254	C.3	1	RES1	0.000	
31	 C52	11.005	51.532	93.593	C.3	1	RES1	0.000	
32	 C53	12.341	52.660	85.196	C.2	1	RES1	0.000	
33	 C54	13.156	52.427	84.060	C.2	1	RES1	0.000	
34	 C55	15.676	51.032	80.514	C.2	1	RES1	0.000	
@<TRIPOS>BOND
1 1 4 1
2 2 17 1
3 2 19 1
4 3 19 2
5 4 8 ar
6 4 15 ar
7 7 8 ar
8 7 34 ar
9 8 11 1
10 11 13 ar
11 11 33 ar
12 13 14 ar
13 14 16 ar
14 16 17 1
15 17 18 1
16 19 20 1
17 5 20 1
18 20 21 1
19 21 22 1
20 6 22 1
21 22 23 1
22 5 23 1
23 5 24 1
24 10 24 2
25 24 25 1
26 9 25 1
27 25 28 1
28 9 26 1
29 12 26 2
30 26 27 1
31 28 29 1
32 28 30 1
33 28 31 1
34 16 32 ar
35 32 33 ar
36 15 34 ar
@<TRIPOS>SUBSTRUCTURE
1	RES1	1	GROUP	1 ****	RES
