# created with PyMOL 2.5.2
@<TRIPOS>MOLECULE
ER_4W9H_E3ligase
34 36 1                 
SMALL
USER_CHARGES
@<TRIPOS>ATOM
1	  C1	12.318	49.850	80.400	C.3	1	RES1	0.000	
2	  N1	11.219	53.025	87.598	N.pl3	1	RES1	0.000	
3	  O1	12.321	51.791	89.205	O.2	1	RES1	0.000	
4	  C2	13.632	50.412	80.882	C.2	1	RES1	0.000	
5	  N2	12.571	54.043	90.921	N.pl3	1	RES1	0.000	
6	  O2	14.029	56.593	90.361	O.3	1	RES1	0.000	
7	  S2	15.574	51.519	82.079	S.2	1	RES1	0.000	
8	  C3	13.919	50.983	82.096	C.2	1	RES1	0.000	
9	  N3	10.926	54.521	94.092	N.pl3	1	RES1	0.000	
10	  O3	10.434	53.675	91.589	O.2	1	RES1	0.000	
11	  C4	13.082	51.217	83.254	C.2	1	RES1	0.000	
12	  O4	12.066	56.423	94.654	O.2	1	RES1	0.000	
13	  C5	12.216	50.232	83.747	C.2	1	RES1	0.000	
14	  C6	11.468	50.442	84.926	C.2	1	RES1	0.000	
15	  N6	14.689	50.352	79.957	N.2	1	RES1	0.000	
16	  C7	11.536	51.660	85.597	C.2	1	RES1	0.000	
17	  C8	10.694	51.896	86.852	C.3	1	RES1	0.000	
18	  C9	9.237	52.078	86.523	C.3	1	RES1	0.000	
19	 C10	12.032	52.882	88.734	C.2	1	RES1	0.000	
20	 C11	12.386	54.187	89.460	C.3	1	RES1	0.000	
21	 C12	13.756	54.660	88.929	C.3	1	RES1	0.000	
22	 C13	14.443	55.241	90.159	C.3	1	RES1	0.000	
23	 C14	13.921	54.371	91.308	C.3	1	RES1	0.000	
24	 C15	11.597	53.835	91.887	C.2	1	RES1	0.000	
25	 C16	12.004	53.835	93.395	C.3	1	RES1	0.000	
26	 C17	11.047	55.773	94.691	C.2	1	RES1	0.000	
27	 C18	9.832	56.221	95.389	C.3	1	RES1	0.000	
28	 C50	12.273	52.408	93.946	C.3	1	RES1	0.000	
29	 C51	12.683	52.380	95.418	C.3	1	RES1	0.000	
30	 C52	13.413	51.743	93.129	C.3	1	RES1	0.000	
31	 C53	11.027	51.500	93.772	C.3	1	RES1	0.000	
32	 C54	12.373	52.666	85.075	C.2	1	RES1	0.000	
33	 C55	13.137	52.452	83.945	C.2	1	RES1	0.000	
34	 C56	15.724	50.889	80.502	C.2	1	RES1	0.000	
@<TRIPOS>BOND
1 1 4 1
2 2 17 1
3 2 19 1
4 3 19 2
5 4 8 ar
6 4 15 ar
7 7 8 ar
8 7 34 ar
9 8 11 1
10 11 13 ar
11 11 33 ar
12 13 14 ar
13 14 16 ar
14 16 17 1
15 17 18 1
16 19 20 1
17 5 20 1
18 20 21 1
19 21 22 1
20 6 22 1
21 22 23 1
22 5 23 1
23 5 24 1
24 10 24 2
25 24 25 1
26 9 25 1
27 25 28 1
28 9 26 1
29 12 26 2
30 26 27 1
31 28 29 1
32 28 30 1
33 28 31 1
34 16 32 ar
35 32 33 ar
36 15 34 ar
@<TRIPOS>SUBSTRUCTURE
1	RES1	1	GROUP	1 ****	RES
