# created with PyMOL 2.5.2
@<TRIPOS>MOLECULE
ER_4W9H_E3ligase
34 36 1                 
SMALL
USER_CHARGES
@<TRIPOS>ATOM
1	  C1	12.128	50.000	80.378	C.3	1	RES1	0.000	
2	  N1	11.245	53.113	87.683	N.pl3	1	RES1	0.000	
3	  O1	12.356	51.827	89.202	O.2	1	RES1	0.000	
4	  C2	13.482	50.429	80.887	C.2	1	RES1	0.000	
5	  N2	12.826	54.099	90.930	N.pl3	1	RES1	0.000	
6	  O2	14.011	56.749	90.016	O.3	1	RES1	0.000	
7	  S2	15.486	51.323	82.158	S.2	1	RES1	0.000	
8	  C3	13.817	50.959	82.147	C.2	1	RES1	0.000	
9	  N3	11.099	54.500	94.014	N.pl3	1	RES1	0.000	
10	  O3	10.652	53.627	91.457	O.2	1	RES1	0.000	
11	  C4	13.002	51.230	83.311	C.2	1	RES1	0.000	
12	  O4	12.379	56.278	94.713	O.2	1	RES1	0.000	
13	  C5	13.143	52.428	84.028	C.2	1	RES1	0.000	
14	  C6	12.375	52.723	85.170	C.2	1	RES1	0.000	
15	  N6	14.541	50.309	79.999	N.2	1	RES1	0.000	
16	  C7	11.475	51.772	85.674	C.2	1	RES1	0.000	
17	  C8	10.656	52.022	86.911	C.3	1	RES1	0.000	
18	  C9	9.184	52.268	86.621	C.3	1	RES1	0.000	
19	 C10	12.080	52.906	88.781	C.2	1	RES1	0.000	
20	 C11	12.519	54.189	89.481	C.3	1	RES1	0.000	
21	 C12	13.843	54.671	88.847	C.3	1	RES1	0.000	
22	 C13	14.521	55.401	89.974	C.3	1	RES1	0.000	
23	 C14	14.129	54.646	91.209	C.3	1	RES1	0.000	
24	 C15	11.798	53.818	91.840	C.2	1	RES1	0.000	
25	 C16	12.148	53.744	93.353	C.3	1	RES1	0.000	
26	 C17	11.301	55.707	94.638	C.2	1	RES1	0.000	
27	 C18	10.043	56.321	95.216	C.3	1	RES1	0.000	
28	 C51	12.282	52.289	93.900	C.3	1	RES1	0.000	
29	 C52	10.905	51.606	93.877	C.3	1	RES1	0.000	
30	 C53	12.791	52.337	95.356	C.3	1	RES1	0.000	
31	 C54	13.246	51.426	93.097	C.3	1	RES1	0.000	
32	 C55	11.348	50.560	84.981	C.2	1	RES1	0.000	
33	 C56	12.114	50.290	83.859	C.2	1	RES1	0.000	
34	 C57	15.636	50.725	80.567	C.2	1	RES1	0.000	
@<TRIPOS>BOND
1 1 4 1
2 2 17 1
3 2 19 1
4 3 19 2
5 4 8 ar
6 4 15 ar
7 7 8 ar
8 7 34 ar
9 8 11 1
10 11 13 ar
11 11 33 ar
12 13 14 ar
13 14 16 ar
14 16 17 1
15 17 18 1
16 19 20 1
17 5 20 1
18 20 21 1
19 21 22 1
20 6 22 1
21 22 23 1
22 5 23 1
23 5 24 1
24 10 24 2
25 24 25 1
26 9 25 1
27 25 28 1
28 9 26 1
29 12 26 2
30 26 27 1
31 28 29 1
32 28 30 1
33 28 31 1
34 16 32 ar
35 32 33 ar
36 15 34 ar
@<TRIPOS>SUBSTRUCTURE
1	RES1	1	GROUP	1 ****	RES
