# created with PyMOL 2.5.2
@<TRIPOS>MOLECULE
ER_4W9H_E3ligase
34 36 1                 
SMALL
USER_CHARGES
@<TRIPOS>ATOM
1	  C1	12.276	49.859	80.624	C.3	1	RES1	0.000	
2	  N1	11.048	52.922	87.750	N.pl3	1	RES1	0.000	
3	  O1	12.523	51.938	89.237	O.2	1	RES1	0.000	
4	  C2	13.535	50.541	80.969	C.2	1	RES1	0.000	
5	  N2	12.489	54.182	90.827	N.pl3	1	RES1	0.000	
6	  O2	15.459	55.711	89.554	O.3	1	RES1	0.000	
7	  S2	15.491	51.693	82.116	S.2	1	RES1	0.000	
8	  C3	13.890	51.101	82.207	C.2	1	RES1	0.000	
9	  N3	11.081	54.584	94.120	N.pl3	1	RES1	0.000	
10	  O3	10.342	53.782	91.582	O.2	1	RES1	0.000	
11	  C4	13.110	51.238	83.442	C.2	1	RES1	0.000	
12	  O4	12.482	56.348	94.662	O.2	1	RES1	0.000	
13	  C5	12.399	50.160	83.960	C.2	1	RES1	0.000	
14	  C6	11.632	50.275	85.134	C.2	1	RES1	0.000	
15	  N6	14.525	50.611	79.996	N.2	1	RES1	0.000	
16	  C7	11.564	51.513	85.812	C.2	1	RES1	0.000	
17	  C8	10.711	51.688	87.035	C.3	1	RES1	0.000	
18	  C9	9.209	51.638	86.707	C.3	1	RES1	0.000	
19	 C10	11.902	52.928	88.818	C.2	1	RES1	0.000	
20	 C11	12.092	54.324	89.443	C.3	1	RES1	0.000	
21	 C12	13.233	55.138	88.814	C.3	1	RES1	0.000	
22	 C13	14.452	54.724	89.600	C.3	1	RES1	0.000	
23	 C14	13.884	54.508	91.023	C.3	1	RES1	0.000	
24	 C15	11.522	53.944	91.821	C.2	1	RES1	0.000	
25	 C16	12.058	53.843	93.306	C.3	1	RES1	0.000	
26	 C17	11.404	55.794	94.717	C.2	1	RES1	0.000	
27	 C18	10.227	56.397	95.434	C.3	1	RES1	0.000	
28	 C52	12.250	52.386	93.796	C.3	1	RES1	0.000	
29	 C53	10.871	51.719	93.935	C.3	1	RES1	0.000	
30	 C54	12.940	52.375	95.193	C.3	1	RES1	0.000	
31	 C55	13.124	51.506	92.856	C.3	1	RES1	0.000	
32	 C56	12.237	52.605	85.262	C.2	1	RES1	0.000	
33	 C57	13.005	52.468	84.100	C.2	1	RES1	0.000	
34	 C58	15.615	51.205	80.486	C.2	1	RES1	0.000	
@<TRIPOS>BOND
1 1 4 1
2 2 17 1
3 2 19 1
4 3 19 2
5 4 8 ar
6 4 15 ar
7 7 8 ar
8 7 34 ar
9 8 11 1
10 11 13 ar
11 11 33 ar
12 13 14 ar
13 14 16 ar
14 16 17 1
15 17 18 1
16 19 20 1
17 5 20 1
18 20 21 1
19 21 22 1
20 6 22 1
21 22 23 1
22 5 23 1
23 5 24 1
24 10 24 2
25 24 25 1
26 9 25 1
27 25 28 1
28 9 26 1
29 12 26 2
30 26 27 1
31 28 29 1
32 28 30 1
33 28 31 1
34 16 32 ar
35 32 33 ar
36 15 34 ar
@<TRIPOS>SUBSTRUCTURE
1	RES1	1	GROUP	1 ****	RES
