# created with PyMOL 2.5.2
@<TRIPOS>MOLECULE
ER_4W9H_E3ligase
34 36 1                 
SMALL
USER_CHARGES
@<TRIPOS>ATOM
1	  C1	12.198	49.851	80.489	C.3	1	RES1	0.000	
2	  N1	11.211	53.134	87.659	N.pl3	1	RES1	0.000	
3	  O1	12.317	51.870	89.241	O.2	1	RES1	0.000	
4	  C2	13.514	50.387	80.942	C.2	1	RES1	0.000	
5	  N2	12.829	54.096	90.901	N.pl3	1	RES1	0.000	
6	  O2	14.059	56.733	90.021	O.3	1	RES1	0.000	
7	  S2	15.469	51.461	82.153	S.2	1	RES1	0.000	
8	  C3	13.806	50.983	82.163	C.2	1	RES1	0.000	
9	  N3	11.104	54.482	94.016	N.pl3	1	RES1	0.000	
10	  O3	10.641	53.635	91.431	O.2	1	RES1	0.000	
11	  C4	12.988	51.244	83.329	C.2	1	RES1	0.000	
12	  O4	12.435	56.278	94.690	O.2	1	RES1	0.000	
13	  C5	12.133	50.293	83.843	C.2	1	RES1	0.000	
14	  C6	11.369	50.532	85.027	C.2	1	RES1	0.000	
15	  N6	14.561	50.289	80.053	N.2	1	RES1	0.000	
16	  C7	11.459	51.740	85.681	C.2	1	RES1	0.000	
17	  C8	10.623	52.001	86.940	C.3	1	RES1	0.000	
18	  C9	9.140	52.223	86.661	C.3	1	RES1	0.000	
19	 C10	12.055	52.944	88.757	C.2	1	RES1	0.000	
20	 C11	12.522	54.218	89.440	C.3	1	RES1	0.000	
21	 C12	13.831	54.661	88.830	C.3	1	RES1	0.000	
22	 C13	14.552	55.388	89.956	C.3	1	RES1	0.000	
23	 C14	14.161	54.601	91.198	C.3	1	RES1	0.000	
24	 C15	11.787	53.813	91.825	C.2	1	RES1	0.000	
25	 C16	12.163	53.740	93.330	C.3	1	RES1	0.000	
26	 C17	11.355	55.725	94.638	C.2	1	RES1	0.000	
27	 C18	10.104	56.311	95.228	C.3	1	RES1	0.000	
28	 C53	12.278	52.277	93.845	C.3	1	RES1	0.000	
29	 C54	10.860	51.624	93.842	C.3	1	RES1	0.000	
30	 C55	12.731	52.293	95.322	C.3	1	RES1	0.000	
31	 C56	13.206	51.370	93.031	C.3	1	RES1	0.000	
32	 C57	12.335	52.749	85.180	C.2	1	RES1	0.000	
33	 C58	13.070	52.468	84.034	C.2	1	RES1	0.000	
34	 C59	15.638	50.812	80.586	C.2	1	RES1	0.000	
@<TRIPOS>BOND
1 1 4 1
2 2 17 1
3 2 19 1
4 3 19 2
5 4 8 ar
6 4 15 ar
7 7 8 ar
8 7 34 ar
9 8 11 1
10 11 13 ar
11 11 33 ar
12 13 14 ar
13 14 16 ar
14 16 17 1
15 17 18 1
16 19 20 1
17 5 20 1
18 20 21 1
19 21 22 1
20 6 22 1
21 22 23 1
22 5 23 1
23 5 24 1
24 10 24 2
25 24 25 1
26 9 25 1
27 25 28 1
28 9 26 1
29 12 26 2
30 26 27 1
31 28 29 1
32 28 30 1
33 28 31 1
34 16 32 ar
35 32 33 ar
36 15 34 ar
@<TRIPOS>SUBSTRUCTURE
1	RES1	1	GROUP	1 ****	RES
