# created with PyMOL 2.5.2
@<TRIPOS>MOLECULE
ER_5NVV_E3ligase
35 37 1                 
SMALL
USER_CHARGES
@<TRIPOS>ATOM
1	  C1	12.864	49.991	80.701	C.3	1	RES1	0.000	
2	  N1	11.370	52.979	87.828	N.pl3	1	RES1	0.000	
3	  O1	12.863	52.041	89.271	O.2	1	RES1	0.000	
4	  C2	14.119	50.628	81.083	C.2	1	RES1	0.000	
5	  N2	12.674	54.211	91.052	N.pl3	1	RES1	0.000	
6	  O2	15.765	55.705	89.975	O.3	1	RES1	0.000	
7	  S2	15.964	51.893	82.233	S.2	1	RES1	0.000	
8	  C3	14.410	51.247	82.329	C.2	1	RES1	0.000	
9	  N3	11.352	54.519	94.377	N.pl3	1	RES1	0.000	
10	  O3	10.628	53.688	91.928	O.2	1	RES1	0.000	
11	  C4	13.587	51.393	83.525	C.2	1	RES1	0.000	
12	  O4	12.428	56.550	94.763	O.2	1	RES1	0.000	
13	  C5	12.854	50.317	84.000	C.2	1	RES1	0.000	
14	  O5	10.466	57.504	96.383	O.3	1	RES1	0.000	
15	  C6	12.065	50.434	85.156	C.2	1	RES1	0.000	
16	  N6	15.133	50.669	80.169	N.2	1	RES1	0.000	
17	  C7	11.971	51.664	85.831	C.2	1	RES1	0.000	
18	  C8	11.081	51.786	87.082	C.3	1	RES1	0.000	
19	  C9	9.591	51.751	86.685	C.3	1	RES1	0.000	
20	 C10	12.239	53.038	88.867	C.2	1	RES1	0.000	
21	 C11	12.363	54.376	89.620	C.3	1	RES1	0.000	
22	 C12	13.526	55.156	89.078	C.3	1	RES1	0.000	
23	 C13	14.689	54.731	89.941	C.3	1	RES1	0.000	
24	 C14	14.045	54.513	91.310	C.3	1	RES1	0.000	
25	 C15	11.809	53.914	92.109	C.2	1	RES1	0.000	
26	 C16	12.381	53.888	93.536	C.3	1	RES1	0.000	
27	 C17	11.442	55.795	94.925	C.2	1	RES1	0.000	
28	 C18	10.291	56.175	95.798	C.3	1	RES1	0.000	
29	 C49	12.791	52.469	94.049	C.3	1	RES1	0.000	
30	 C50	11.573	51.492	94.127	C.3	1	RES1	0.000	
31	 C51	13.402	52.573	95.453	C.3	1	RES1	0.000	
32	 C52	13.855	51.869	93.129	C.3	1	RES1	0.000	
33	 C53	12.686	52.747	85.339	C.2	1	RES1	0.000	
34	 C54	13.501	52.618	84.204	C.2	1	RES1	0.000	
35	 C55	16.165	51.300	80.663	C.2	1	RES1	0.000	
@<TRIPOS>BOND
1 1 4 1
2 2 18 1
3 2 20 1
4 3 20 2
5 4 8 ar
6 4 16 ar
7 7 8 ar
8 7 35 ar
9 8 11 1
10 11 13 ar
11 11 34 ar
12 13 15 ar
13 15 17 ar
14 17 18 1
15 18 19 1
16 20 21 1
17 5 21 1
18 21 22 1
19 22 23 1
20 6 23 1
21 23 24 1
22 5 24 1
23 5 25 1
24 10 25 2
25 25 26 1
26 9 26 1
27 26 29 1
28 9 27 1
29 12 27 2
30 27 28 1
31 14 28 1
32 29 30 1
33 29 31 1
34 29 32 1
35 17 33 ar
36 33 34 ar
37 16 35 ar
@<TRIPOS>SUBSTRUCTURE
1	RES1	1	GROUP	1 ****	RES
