# created with PyMOL 2.5.2
@<TRIPOS>MOLECULE
ER_5NVV_E3ligase
35 37 1                 
SMALL
USER_CHARGES
@<TRIPOS>ATOM
1	  C1	12.674	49.926	80.710	C.3	1	RES1	0.000	
2	  N1	11.515	53.237	87.874	N.pl3	1	RES1	0.000	
3	  O1	12.750	51.947	89.352	O.2	1	RES1	0.000	
4	  C2	13.966	50.513	81.167	C.2	1	RES1	0.000	
5	  N2	13.168	54.163	91.078	N.pl3	1	RES1	0.000	
6	  O2	14.439	56.841	90.336	O.3	1	RES1	0.000	
7	  S2	15.861	51.677	82.384	S.2	1	RES1	0.000	
8	  C3	14.230	51.119	82.402	C.2	1	RES1	0.000	
9	  N3	11.424	54.419	94.207	N.pl3	1	RES1	0.000	
10	  O3	10.991	53.642	91.631	O.2	1	RES1	0.000	
11	  C4	13.375	51.367	83.577	C.2	1	RES1	0.000	
12	  O4	12.599	56.322	94.848	O.2	1	RES1	0.000	
13	  C5	13.454	52.587	84.234	C.2	1	RES1	0.000	
14	  O5	10.484	57.421	96.104	O.3	1	RES1	0.000	
15	  C6	12.673	52.848	85.369	C.2	1	RES1	0.000	
16	  N6	15.028	50.443	80.298	N.2	1	RES1	0.000	
17	  C7	11.801	51.864	85.858	C.2	1	RES1	0.000	
18	  C8	10.955	52.110	87.113	C.3	1	RES1	0.000	
19	  C9	9.469	52.338	86.828	C.3	1	RES1	0.000	
20	 C10	12.394	53.046	88.908	C.2	1	RES1	0.000	
21	 C11	12.832	54.318	89.630	C.3	1	RES1	0.000	
22	 C12	14.097	54.831	89.014	C.3	1	RES1	0.000	
23	 C13	14.888	55.502	90.132	C.3	1	RES1	0.000	
24	 C14	14.512	54.600	91.330	C.3	1	RES1	0.000	
25	 C15	12.175	53.857	91.984	C.2	1	RES1	0.000	
26	 C16	12.522	53.763	93.499	C.3	1	RES1	0.000	
27	 C17	11.584	55.672	94.792	C.2	1	RES1	0.000	
28	 C18	10.308	56.173	95.450	C.3	1	RES1	0.000	
29	 C51	12.775	52.300	93.984	C.3	1	RES1	0.000	
30	 C52	11.441	51.515	93.932	C.3	1	RES1	0.000	
31	 C53	13.264	52.273	95.424	C.3	1	RES1	0.000	
32	 C54	13.782	51.538	93.104	C.3	1	RES1	0.000	
33	 C55	11.756	50.631	85.210	C.2	1	RES1	0.000	
34	 C56	12.542	50.387	84.099	C.2	1	RES1	0.000	
35	 C57	16.098	51.025	80.816	C.2	1	RES1	0.000	
@<TRIPOS>BOND
1 1 4 1
2 2 18 1
3 2 20 1
4 3 20 2
5 4 8 ar
6 4 16 ar
7 7 8 ar
8 7 35 ar
9 8 11 1
10 11 13 ar
11 11 34 ar
12 13 15 ar
13 15 17 ar
14 17 18 1
15 18 19 1
16 20 21 1
17 5 21 1
18 21 22 1
19 22 23 1
20 6 23 1
21 23 24 1
22 5 24 1
23 5 25 1
24 10 25 2
25 25 26 1
26 9 26 1
27 26 29 1
28 9 27 1
29 12 27 2
30 27 28 1
31 14 28 1
32 29 30 1
33 29 31 1
34 29 32 1
35 17 33 ar
36 33 34 ar
37 16 35 ar
@<TRIPOS>SUBSTRUCTURE
1	RES1	1	GROUP	1 ****	RES
