# created with PyMOL 2.5.2
@<TRIPOS>MOLECULE
ER_5NVV_E3ligase
35 37 1                 
SMALL
USER_CHARGES
@<TRIPOS>ATOM
1	  C1	12.712	49.982	80.772	C.3	1	RES1	0.000	
2	  N1	11.519	53.134	87.885	N.pl3	1	RES1	0.000	
3	  O1	12.795	51.896	89.323	O.2	1	RES1	0.000	
4	  C2	13.987	50.577	81.194	C.2	1	RES1	0.000	
5	  N2	13.083	54.099	91.023	N.pl3	1	RES1	0.000	
6	  O2	14.340	56.771	90.485	O.3	1	RES1	0.000	
7	  S2	15.916	51.766	82.350	S.2	1	RES1	0.000	
8	  C3	14.307	51.161	82.389	C.2	1	RES1	0.000	
9	  N3	11.408	54.491	94.212	N.pl3	1	RES1	0.000	
10	  O3	10.897	53.714	91.603	O.2	1	RES1	0.000	
11	  C4	13.492	51.378	83.622	C.2	1	RES1	0.000	
12	  O4	12.642	56.313	94.801	O.2	1	RES1	0.000	
13	  C5	13.522	52.573	84.291	C.2	1	RES1	0.000	
14	  O5	10.559	57.495	96.121	O.3	1	RES1	0.000	
15	  C6	12.702	52.762	85.429	C.2	1	RES1	0.000	
16	  N6	15.027	50.550	80.283	N.2	1	RES1	0.000	
17	  C7	11.864	51.761	85.885	C.2	1	RES1	0.000	
18	  C8	10.994	51.975	87.128	C.3	1	RES1	0.000	
19	  C9	9.513	52.161	86.807	C.3	1	RES1	0.000	
20	 C10	12.395	52.980	88.936	C.2	1	RES1	0.000	
21	 C11	12.813	54.303	89.579	C.3	1	RES1	0.000	
22	 C12	14.104	54.857	89.018	C.3	1	RES1	0.000	
23	 C13	14.824	55.455	90.191	C.3	1	RES1	0.000	
24	 C14	14.441	54.533	91.372	C.3	1	RES1	0.000	
25	 C15	12.065	53.878	91.951	C.2	1	RES1	0.000	
26	 C16	12.447	53.783	93.443	C.3	1	RES1	0.000	
27	 C17	11.581	55.709	94.807	C.2	1	RES1	0.000	
28	 C18	10.318	56.238	95.440	C.3	1	RES1	0.000	
29	 C53	12.696	52.295	93.936	C.3	1	RES1	0.000	
30	 C54	11.413	51.477	93.905	C.3	1	RES1	0.000	
31	 C55	13.185	52.339	95.381	C.3	1	RES1	0.000	
32	 C56	13.773	51.632	93.075	C.3	1	RES1	0.000	
33	 C57	11.823	50.547	85.176	C.2	1	RES1	0.000	
34	 C58	12.634	50.335	84.073	C.2	1	RES1	0.000	
35	 C59	16.078	51.121	80.778	C.2	1	RES1	0.000	
@<TRIPOS>BOND
1 1 4 1
2 2 18 1
3 2 20 1
4 3 20 2
5 4 8 ar
6 4 16 ar
7 7 8 ar
8 7 35 ar
9 8 11 1
10 11 13 ar
11 11 34 ar
12 13 15 ar
13 15 17 ar
14 17 18 1
15 18 19 1
16 20 21 1
17 5 21 1
18 21 22 1
19 22 23 1
20 6 23 1
21 23 24 1
22 5 24 1
23 5 25 1
24 10 25 2
25 25 26 1
26 9 26 1
27 26 29 1
28 9 27 1
29 12 27 2
30 27 28 1
31 14 28 1
32 29 30 1
33 29 31 1
34 29 32 1
35 17 33 ar
36 33 34 ar
37 16 35 ar
@<TRIPOS>SUBSTRUCTURE
1	RES1	1	GROUP	1 ****	RES
