# created with PyMOL 2.5.2
@<TRIPOS>MOLECULE
ER_5NVV_E3ligase
35 37 1                 
SMALL
USER_CHARGES
@<TRIPOS>ATOM
1	  C1	12.822	49.966	80.778	C.3	1	RES1	0.000	
2	  N1	11.348	52.897	87.963	N.pl3	1	RES1	0.000	
3	  O1	12.885	51.928	89.363	O.2	1	RES1	0.000	
4	  C2	14.025	50.711	81.198	C.2	1	RES1	0.000	
5	  N2	12.857	54.220	91.018	N.pl3	1	RES1	0.000	
6	  O2	15.758	55.817	89.698	O.3	1	RES1	0.000	
7	  S2	15.868	51.991	82.399	S.2	1	RES1	0.000	
8	  C3	14.287	51.318	82.435	C.2	1	RES1	0.000	
9	  N3	11.430	54.544	94.309	N.pl3	1	RES1	0.000	
10	  O3	10.738	53.748	91.789	O.2	1	RES1	0.000	
11	  C4	13.459	51.410	83.613	C.2	1	RES1	0.000	
12	  O4	12.638	56.471	94.722	O.2	1	RES1	0.000	
13	  C5	12.750	50.296	84.098	C.2	1	RES1	0.000	
14	  O5	10.634	57.572	96.242	O.3	1	RES1	0.000	
15	  C6	11.976	50.367	85.234	C.2	1	RES1	0.000	
16	  N6	15.075	50.824	80.261	N.2	1	RES1	0.000	
17	  C7	11.863	51.578	85.974	C.2	1	RES1	0.000	
18	  C8	11.016	51.691	87.223	C.3	1	RES1	0.000	
19	  C9	9.514	51.688	86.899	C.3	1	RES1	0.000	
20	 C10	12.291	52.942	88.976	C.2	1	RES1	0.000	
21	 C11	12.430	54.303	89.618	C.3	1	RES1	0.000	
22	 C12	13.545	55.158	88.988	C.3	1	RES1	0.000	
23	 C13	14.770	54.781	89.756	C.3	1	RES1	0.000	
24	 C14	14.246	54.565	91.176	C.3	1	RES1	0.000	
25	 C15	11.912	53.937	92.033	C.2	1	RES1	0.000	
26	 C16	12.447	53.870	93.483	C.3	1	RES1	0.000	
27	 C17	11.609	55.797	94.853	C.2	1	RES1	0.000	
28	 C18	10.414	56.305	95.644	C.3	1	RES1	0.000	
29	 C55	12.759	52.420	93.942	C.3	1	RES1	0.000	
30	 C56	11.406	51.642	94.105	C.3	1	RES1	0.000	
31	 C57	13.427	52.422	95.337	C.3	1	RES1	0.000	
32	 C58	13.643	51.628	92.957	C.3	1	RES1	0.000	
33	 C59	12.583	52.683	85.494	C.2	1	RES1	0.000	
34	 C60	13.368	52.586	84.365	C.2	1	RES1	0.000	
35	 C61	16.074	51.481	80.784	C.2	1	RES1	0.000	
@<TRIPOS>BOND
1 1 4 1
2 2 18 1
3 2 20 1
4 3 20 2
5 4 8 ar
6 4 16 ar
7 7 8 ar
8 7 35 ar
9 8 11 1
10 11 13 ar
11 11 34 ar
12 13 15 ar
13 15 17 ar
14 16 35 ar
15 17 18 1
16 18 19 1
17 20 21 1
18 5 21 1
19 21 22 1
20 22 23 1
21 6 23 1
22 23 24 1
23 5 24 1
24 5 25 1
25 10 25 2
26 25 26 1
27 9 26 1
28 26 29 1
29 9 27 1
30 12 27 2
31 27 28 1
32 14 28 1
33 29 30 1
34 29 31 1
35 29 32 1
36 17 33 ar
37 33 34 ar
@<TRIPOS>SUBSTRUCTURE
1	RES1	1	GROUP	1 ****	RES
