# created with PyMOL 2.5.2
@<TRIPOS>MOLECULE
BRD4_6H0G_E3ligase
20 22 1                 
SMALL
USER_CHARGES
@<TRIPOS>ATOM
1	  N5	1.989	54.436	-85.626	N.pl3	1	RES1	0.000	
2	  N6	1.753	51.804	-82.106	N.2	1	RES1	0.000	
3	  O6	2.836	53.744	-82.855	O.2	1	RES1	0.000	
4	  N7	1.971	50.042	-78.892	N.pl3	1	RES1	0.000	
5	  O7	3.667	49.655	-77.417	O.3	1	RES1	0.000	
6	  O8	0.230	50.393	-80.285	O.2	1	RES1	0.000	
7	  O9	0.414	49.834	-82.219	O.2	1	RES1	0.000	
8	 C25	1.333	53.190	-85.462	C.2	1	RES1	0.000	
9	 C26	0.515	52.669	-86.476	C.2	1	RES1	0.000	
10	 C27	-0.192	51.479	-86.264	C.2	1	RES1	0.000	
11	 C28	-0.135	50.788	-85.065	C.2	1	RES1	0.000	
12	 C29	0.663	51.345	-84.046	C.2	1	RES1	0.000	
13	 C30	1.359	52.497	-84.227	C.2	1	RES1	0.000	
14	 C31	2.047	52.804	-82.998	C.2	1	RES1	0.000	
15	 C32	2.250	51.663	-80.723	C.3	1	RES1	0.000	
16	 C33	3.720	51.309	-80.638	C.3	1	RES1	0.000	
17	 C34	4.138	51.225	-79.178	C.3	1	RES1	0.000	
18	 C35	3.282	50.207	-78.423	C.3	1	RES1	0.000	
19	 C36	1.409	50.639	-79.991	C.2	1	RES1	0.000	
20	 C37	0.875	50.869	-82.676	C.2	1	RES1	0.000	
@<TRIPOS>BOND
1 1 8 1
2 8 9 ar
3 8 13 ar
4 9 10 ar
5 10 11 ar
6 11 12 ar
7 12 13 ar
8 12 20 ar
9 13 14 ar
10 2 14 ar
11 3 14 2
12 2 15 1
13 15 16 1
14 15 19 1
15 16 17 1
16 17 18 1
17 4 18 1
18 5 18 1
19 4 19 1
20 6 19 2
21 2 20 ar
22 7 20 2
@<TRIPOS>SUBSTRUCTURE
1	RES1	1	GROUP	1 ****	RES
