# created with PyMOL 2.5.2
@<TRIPOS>MOLECULE
ER_5NVV_E3ligase
35 37 1                 
SMALL
USER_CHARGES
@<TRIPOS>ATOM
1	  C1	12.705	50.021	80.765	C.3	1	RES1	0.000	
2	  N1	11.509	53.088	87.900	N.pl3	1	RES1	0.000	
3	  O1	12.810	51.839	89.322	O.2	1	RES1	0.000	
4	  C2	14.000	50.614	81.197	C.2	1	RES1	0.000	
5	  N2	13.120	54.095	91.034	N.pl3	1	RES1	0.000	
6	  O2	14.405	56.735	90.416	O.3	1	RES1	0.000	
7	  S2	15.907	51.788	82.377	S.2	1	RES1	0.000	
8	  C3	14.303	51.190	82.402	C.2	1	RES1	0.000	
9	  N3	11.386	54.487	94.177	N.pl3	1	RES1	0.000	
10	  O3	10.930	53.743	91.608	O.2	1	RES1	0.000	
11	  C4	13.472	51.358	83.629	C.2	1	RES1	0.000	
12	  O4	12.610	56.355	94.742	O.2	1	RES1	0.000	
13	  C5	13.515	52.584	84.330	C.2	1	RES1	0.000	
14	  O5	10.495	57.503	96.074	O.3	1	RES1	0.000	
15	  C6	12.681	52.777	85.455	C.2	1	RES1	0.000	
16	  N6	15.020	50.594	80.278	N.2	1	RES1	0.000	
17	  C7	11.824	51.745	85.904	C.2	1	RES1	0.000	
18	  C8	10.976	51.970	87.110	C.3	1	RES1	0.000	
19	  C9	9.487	52.229	86.756	C.3	1	RES1	0.000	
20	 C10	12.407	52.935	88.961	C.2	1	RES1	0.000	
21	 C11	12.814	54.254	89.602	C.3	1	RES1	0.000	
22	 C12	14.123	54.778	89.009	C.3	1	RES1	0.000	
23	 C13	14.872	55.390	90.182	C.3	1	RES1	0.000	
24	 C14	14.454	54.497	91.349	C.3	1	RES1	0.000	
25	 C15	12.051	53.851	91.973	C.2	1	RES1	0.000	
26	 C16	12.456	53.783	93.466	C.3	1	RES1	0.000	
27	 C17	11.552	55.737	94.762	C.2	1	RES1	0.000	
28	 C18	10.282	56.258	95.408	C.3	1	RES1	0.000	
29	 C57	12.707	52.346	93.959	C.3	1	RES1	0.000	
30	 C58	11.443	51.457	93.922	C.3	1	RES1	0.000	
31	 C59	13.225	52.364	95.411	C.3	1	RES1	0.000	
32	 C60	13.787	51.661	93.080	C.3	1	RES1	0.000	
33	 C61	11.808	50.531	85.194	C.2	1	RES1	0.000	
34	 C62	12.611	50.370	84.046	C.2	1	RES1	0.000	
35	 C63	16.094	51.169	80.784	C.2	1	RES1	0.000	
@<TRIPOS>BOND
1 1 4 1
2 2 18 1
3 2 20 1
4 3 20 2
5 4 8 ar
6 4 16 ar
7 7 8 ar
8 7 35 ar
9 8 11 1
10 11 13 ar
11 11 34 ar
12 13 15 ar
13 15 17 ar
14 16 35 ar
15 17 18 1
16 18 19 1
17 20 21 1
18 5 21 1
19 21 22 1
20 22 23 1
21 6 23 1
22 23 24 1
23 5 24 1
24 5 25 1
25 10 25 2
26 25 26 1
27 9 26 1
28 26 29 1
29 9 27 1
30 12 27 2
31 27 28 1
32 14 28 1
33 29 30 1
34 29 31 1
35 29 32 1
36 17 33 ar
37 33 34 ar
@<TRIPOS>SUBSTRUCTURE
1	RES1	1	GROUP	1 ****	RES
