# created with PyMOL 2.5.2
@<TRIPOS>MOLECULE
ER_5NVV_E3ligase
35 37 1                 
SMALL
USER_CHARGES
@<TRIPOS>ATOM
1	  C1	12.622	49.861	80.815	C.3	1	RES1	0.000	
2	  N1	11.524	53.215	87.917	N.pl3	1	RES1	0.000	
3	  O1	12.800	51.958	89.307	O.2	1	RES1	0.000	
4	  C2	13.934	50.516	81.171	C.2	1	RES1	0.000	
5	  N2	13.121	54.185	91.066	N.pl3	1	RES1	0.000	
6	  O2	14.474	56.816	90.382	O.3	1	RES1	0.000	
7	  S2	15.899	51.640	82.285	S.2	1	RES1	0.000	
8	  C3	14.277	51.098	82.377	C.2	1	RES1	0.000	
9	  N3	11.420	54.421	94.238	N.pl3	1	RES1	0.000	
10	  O3	10.957	53.650	91.625	O.2	1	RES1	0.000	
11	  C4	13.484	51.347	83.594	C.2	1	RES1	0.000	
12	  O4	12.593	56.338	94.770	O.2	1	RES1	0.000	
13	  C5	13.549	52.584	84.275	C.2	1	RES1	0.000	
14	  O5	10.500	57.437	96.145	O.3	1	RES1	0.000	
15	  C6	12.767	52.827	85.387	C.2	1	RES1	0.000	
16	  N6	14.926	50.485	80.232	N.2	1	RES1	0.000	
17	  C7	11.874	51.878	85.850	C.2	1	RES1	0.000	
18	  C8	11.004	52.116	87.085	C.3	1	RES1	0.000	
19	  C9	9.533	52.375	86.717	C.3	1	RES1	0.000	
20	 C10	12.366	53.058	88.967	C.2	1	RES1	0.000	
21	 C11	12.777	54.346	89.652	C.3	1	RES1	0.000	
22	 C12	14.064	54.861	89.000	C.3	1	RES1	0.000	
23	 C13	14.859	55.453	90.169	C.3	1	RES1	0.000	
24	 C14	14.493	54.563	91.323	C.3	1	RES1	0.000	
25	 C15	12.110	53.863	91.998	C.2	1	RES1	0.000	
26	 C16	12.499	53.773	93.484	C.3	1	RES1	0.000	
27	 C17	11.570	55.656	94.821	C.2	1	RES1	0.000	
28	 C18	10.318	56.167	95.482	C.3	1	RES1	0.000	
29	 C59	12.754	52.303	93.960	C.3	1	RES1	0.000	
30	 C60	11.423	51.538	93.992	C.3	1	RES1	0.000	
31	 C61	13.313	52.308	95.392	C.3	1	RES1	0.000	
32	 C62	13.721	51.530	93.052	C.3	1	RES1	0.000	
33	 C63	11.796	50.626	85.202	C.2	1	RES1	0.000	
34	 C64	12.576	50.399	84.096	C.2	1	RES1	0.000	
35	 C65	15.987	51.041	80.702	C.2	1	RES1	0.000	
@<TRIPOS>BOND
1 1 4 1
2 2 18 1
3 2 20 1
4 3 20 2
5 4 8 ar
6 4 16 ar
7 7 8 ar
8 7 35 ar
9 8 11 1
10 11 13 ar
11 11 34 ar
12 13 15 ar
13 15 17 ar
14 16 35 ar
15 17 18 1
16 18 19 1
17 20 21 1
18 5 21 1
19 21 22 1
20 22 23 1
21 6 23 1
22 23 24 1
23 5 24 1
24 5 25 1
25 10 25 2
26 25 26 1
27 9 26 1
28 26 29 1
29 9 27 1
30 12 27 2
31 27 28 1
32 14 28 1
33 29 30 1
34 29 31 1
35 29 32 1
36 17 33 ar
37 33 34 ar
@<TRIPOS>SUBSTRUCTURE
1	RES1	1	GROUP	1 ****	RES
