# created with PyMOL 2.5.2
@<TRIPOS>MOLECULE
ER_5NVV_E3ligase
35 37 1                 
SMALL
USER_CHARGES
@<TRIPOS>ATOM
1	  C1	12.704	49.841	80.710	C.3	1	RES1	0.000	
2	  N1	11.628	53.260	87.780	N.pl3	1	RES1	0.000	
3	  O1	12.764	51.970	89.312	O.2	1	RES1	0.000	
4	  C2	13.990	50.446	81.097	C.2	1	RES1	0.000	
5	  N2	12.979	54.167	91.099	N.pl3	1	RES1	0.000	
6	  O2	14.365	56.783	90.612	O.3	1	RES1	0.000	
7	  S2	15.990	51.573	82.207	S.2	1	RES1	0.000	
8	  C3	14.360	51.080	82.270	C.2	1	RES1	0.000	
9	  N3	11.341	54.423	94.296	N.pl3	1	RES1	0.000	
10	  O3	10.870	53.620	91.731	O.2	1	RES1	0.000	
11	  C4	13.566	51.347	83.469	C.2	1	RES1	0.000	
12	  O4	12.418	56.410	94.771	O.2	1	RES1	0.000	
13	  C5	13.598	52.598	84.117	C.2	1	RES1	0.000	
14	  O5	10.315	57.359	96.248	O.3	1	RES1	0.000	
15	  C6	12.838	52.849	85.237	C.2	1	RES1	0.000	
16	  N6	15.008	50.393	80.121	N.2	1	RES1	0.000	
17	  C7	11.939	51.919	85.730	C.2	1	RES1	0.000	
18	  C8	11.098	52.164	86.964	C.3	1	RES1	0.000	
19	  C9	9.623	52.395	86.603	C.3	1	RES1	0.000	
20	 C10	12.435	53.098	88.872	C.2	1	RES1	0.000	
21	 C11	12.789	54.372	89.633	C.3	1	RES1	0.000	
22	 C12	14.135	54.905	89.134	C.3	1	RES1	0.000	
23	 C13	14.811	55.443	90.365	C.3	1	RES1	0.000	
24	 C14	14.324	54.489	91.465	C.3	1	RES1	0.000	
25	 C15	12.011	53.859	92.068	C.2	1	RES1	0.000	
26	 C16	12.437	53.796	93.556	C.3	1	RES1	0.000	
27	 C17	11.459	55.690	94.858	C.2	1	RES1	0.000	
28	 C18	10.208	56.106	95.621	C.3	1	RES1	0.000	
29	 C47	12.746	52.347	94.040	C.3	1	RES1	0.000	
30	 C48	11.529	51.442	94.001	C.3	1	RES1	0.000	
31	 C49	13.240	52.402	95.520	C.3	1	RES1	0.000	
32	 C50	13.876	51.716	93.220	C.3	1	RES1	0.000	
33	 C51	11.858	50.660	85.092	C.2	1	RES1	0.000	
34	 C52	12.629	50.389	83.969	C.2	1	RES1	0.000	
35	 C53	16.091	50.934	80.616	C.2	1	RES1	0.000	
@<TRIPOS>BOND
1 1 4 1
2 2 18 1
3 2 20 1
4 3 20 2
5 4 8 ar
6 4 16 ar
7 7 8 ar
8 7 35 ar
9 8 11 1
10 11 13 ar
11 11 34 ar
12 13 15 ar
13 15 17 ar
14 17 18 1
15 18 19 1
16 20 21 1
17 5 21 1
18 21 22 1
19 22 23 1
20 6 23 1
21 23 24 1
22 5 24 1
23 5 25 1
24 10 25 2
25 25 26 1
26 9 26 1
27 26 29 1
28 9 27 1
29 12 27 2
30 27 28 1
31 14 28 1
32 29 30 1
33 29 31 1
34 29 32 1
35 17 33 ar
36 33 34 ar
37 16 35 ar
@<TRIPOS>SUBSTRUCTURE
1	RES1	1	GROUP	1 ****	RES
