# created with PyMOL 2.5.2
@<TRIPOS>MOLECULE
ER_4W9H_E3ligase
34 36 1                 
SMALL
USER_CHARGES
@<TRIPOS>ATOM
1	  C1	12.151	49.946	80.531	C.3	1	RES1	0.000	
2	  N1	11.224	53.125	87.674	N.pl3	1	RES1	0.000	
3	  O1	12.286	51.819	89.249	O.2	1	RES1	0.000	
4	  C2	13.489	50.423	80.952	C.2	1	RES1	0.000	
5	  N2	12.817	54.092	90.905	N.pl3	1	RES1	0.000	
6	  O2	14.045	56.742	90.017	O.3	1	RES1	0.000	
7	  S2	15.525	51.373	82.118	S.2	1	RES1	0.000	
8	  C3	13.828	50.992	82.154	C.2	1	RES1	0.000	
9	  N3	11.070	54.486	94.015	N.pl3	1	RES1	0.000	
10	  O3	10.649	53.600	91.435	O.2	1	RES1	0.000	
11	  C4	13.027	51.245	83.345	C.2	1	RES1	0.000	
12	  O4	12.408	56.243	94.707	O.2	1	RES1	0.000	
13	  C5	13.107	52.485	84.027	C.2	1	RES1	0.000	
14	  C6	12.330	52.732	85.147	C.2	1	RES1	0.000	
15	  N6	14.532	50.281	80.036	N.2	1	RES1	0.000	
16	  C7	11.456	51.779	85.676	C.2	1	RES1	0.000	
17	  C8	10.636	51.999	86.923	C.3	1	RES1	0.000	
18	  C9	9.162	52.215	86.664	C.3	1	RES1	0.000	
19	 C10	12.070	52.927	88.778	C.2	1	RES1	0.000	
20	 C11	12.511	54.185	89.440	C.3	1	RES1	0.000	
21	 C12	13.835	54.685	88.848	C.3	1	RES1	0.000	
22	 C13	14.538	55.405	89.965	C.3	1	RES1	0.000	
23	 C14	14.150	54.613	91.207	C.3	1	RES1	0.000	
24	 C15	11.780	53.806	91.809	C.2	1	RES1	0.000	
25	 C16	12.126	53.745	93.307	C.3	1	RES1	0.000	
26	 C17	11.340	55.710	94.637	C.2	1	RES1	0.000	
27	 C18	10.091	56.350	95.222	C.3	1	RES1	0.000	
28	 C49	12.282	52.289	93.878	C.3	1	RES1	0.000	
29	 C50	10.913	51.559	93.854	C.3	1	RES1	0.000	
30	 C51	12.744	52.349	95.322	C.3	1	RES1	0.000	
31	 C52	13.264	51.451	93.071	C.3	1	RES1	0.000	
32	 C53	11.383	50.545	84.982	C.2	1	RES1	0.000	
33	 C54	12.133	50.291	83.862	C.2	1	RES1	0.000	
34	 C55	15.633	50.758	80.569	C.2	1	RES1	0.000	
@<TRIPOS>BOND
1 1 4 1
2 2 17 1
3 2 19 1
4 3 19 2
5 4 8 ar
6 4 15 ar
7 7 8 ar
8 7 34 ar
9 8 11 1
10 11 13 ar
11 11 33 ar
12 13 14 ar
13 14 16 ar
14 16 17 1
15 17 18 1
16 19 20 1
17 5 20 1
18 20 21 1
19 21 22 1
20 6 22 1
21 22 23 1
22 5 23 1
23 5 24 1
24 10 24 2
25 24 25 1
26 9 25 1
27 25 28 1
28 9 26 1
29 12 26 2
30 26 27 1
31 28 29 1
32 28 30 1
33 28 31 1
34 16 32 ar
35 32 33 ar
36 15 34 ar
@<TRIPOS>SUBSTRUCTURE
1	RES1	1	GROUP	1 ****	RES
