# created with PyMOL 2.5.2
@<TRIPOS>MOLECULE
ER_4W9H_E3ligase
34 36 1                 
SMALL
USER_CHARGES
@<TRIPOS>ATOM
1	  C1	12.202	49.939	80.408	C.3	1	RES1	0.000	
2	  N1	11.255	53.063	87.607	N.pl3	1	RES1	0.000	
3	  O1	12.395	51.808	89.155	O.2	1	RES1	0.000	
4	  C2	13.546	50.393	80.805	C.2	1	RES1	0.000	
5	  N2	12.609	54.065	90.921	N.pl3	1	RES1	0.000	
6	  O2	13.972	56.635	90.342	O.3	1	RES1	0.000	
7	  S2	15.600	51.307	81.999	S.2	1	RES1	0.000	
8	  C3	13.920	50.950	82.044	C.2	1	RES1	0.000	
9	  N3	10.987	54.503	94.120	N.pl3	1	RES1	0.000	
10	  O3	10.471	53.648	91.643	O.2	1	RES1	0.000	
11	  C4	13.116	51.212	83.263	C.2	1	RES1	0.000	
12	  O4	12.127	56.448	94.662	O.2	1	RES1	0.000	
13	  C5	13.231	52.419	83.950	C.2	1	RES1	0.000	
14	  C6	12.474	52.659	85.088	C.2	1	RES1	0.000	
15	  N6	14.531	50.311	79.892	N.2	1	RES1	0.000	
16	  C7	11.607	51.689	85.594	C.2	1	RES1	0.000	
17	  C8	10.745	51.938	86.841	C.3	1	RES1	0.000	
18	  C9	9.264	52.123	86.459	C.3	1	RES1	0.000	
19	 C10	12.068	52.888	88.727	C.2	1	RES1	0.000	
20	 C11	12.408	54.191	89.466	C.3	1	RES1	0.000	
21	 C12	13.743	54.707	88.953	C.3	1	RES1	0.000	
22	 C13	14.435	55.305	90.171	C.3	1	RES1	0.000	
23	 C14	13.943	54.446	91.305	C.3	1	RES1	0.000	
24	 C15	11.625	53.829	91.914	C.2	1	RES1	0.000	
25	 C16	12.075	53.828	93.395	C.3	1	RES1	0.000	
26	 C17	11.117	55.765	94.713	C.2	1	RES1	0.000	
27	 C18	9.857	56.228	95.368	C.3	1	RES1	0.000	
28	 C50	12.362	52.414	93.980	C.3	1	RES1	0.000	
29	 C51	12.748	52.456	95.468	C.3	1	RES1	0.000	
30	 C52	13.493	51.742	93.211	C.3	1	RES1	0.000	
31	 C53	11.107	51.527	93.846	C.3	1	RES1	0.000	
32	 C54	11.504	50.481	84.878	C.2	1	RES1	0.000	
33	 C55	12.239	50.228	83.745	C.2	1	RES1	0.000	
34	 C56	15.672	50.753	80.388	C.2	1	RES1	0.000	
@<TRIPOS>BOND
1 1 4 1
2 2 17 1
3 2 19 1
4 3 19 2
5 4 8 ar
6 4 15 ar
7 7 8 ar
8 7 34 ar
9 8 11 1
10 11 13 ar
11 11 33 ar
12 13 14 ar
13 14 16 ar
14 16 17 1
15 17 18 1
16 19 20 1
17 5 20 1
18 20 21 1
19 21 22 1
20 6 22 1
21 22 23 1
22 5 23 1
23 5 24 1
24 10 24 2
25 24 25 1
26 9 25 1
27 25 28 1
28 9 26 1
29 12 26 2
30 26 27 1
31 28 29 1
32 28 30 1
33 28 31 1
34 16 32 ar
35 32 33 ar
36 15 34 ar
@<TRIPOS>SUBSTRUCTURE
1	RES1	1	GROUP	1 ****	RES
