# created with PyMOL 2.5.2
@<TRIPOS>MOLECULE
ER_4W9H_E3ligase
34 36 1                 
SMALL
USER_CHARGES
@<TRIPOS>ATOM
1	  C1	12.356	50.031	80.505	C.3	1	RES1	0.000	
2	  N1	10.948	52.768	87.763	N.pl3	1	RES1	0.000	
3	  O1	12.348	51.792	89.284	O.2	1	RES1	0.000	
4	  C2	13.603	50.624	80.981	C.2	1	RES1	0.000	
5	  N2	12.507	54.137	90.844	N.pl3	1	RES1	0.000	
6	  O2	15.488	55.534	89.407	O.3	1	RES1	0.000	
7	  S2	15.528	51.742	82.250	S.2	1	RES1	0.000	
8	  C3	13.908	51.167	82.229	C.2	1	RES1	0.000	
9	  N3	11.109	54.661	94.092	N.pl3	1	RES1	0.000	
10	  O3	10.386	53.796	91.612	O.2	1	RES1	0.000	
11	  C4	13.071	51.267	83.454	C.2	1	RES1	0.000	
12	  O4	12.465	56.440	94.632	O.2	1	RES1	0.000	
13	  C5	12.320	50.198	83.897	C.2	1	RES1	0.000	
14	  C6	11.517	50.298	85.032	C.2	1	RES1	0.000	
15	  N6	14.641	50.738	80.047	N.2	1	RES1	0.000	
16	  C7	11.429	51.489	85.756	C.2	1	RES1	0.000	
17	  C8	10.614	51.544	87.017	C.3	1	RES1	0.000	
18	  C9	9.108	51.480	86.841	C.3	1	RES1	0.000	
19	 C10	11.857	52.783	88.792	C.2	1	RES1	0.000	
20	 C11	12.100	54.180	89.431	C.3	1	RES1	0.000	
21	 C12	13.220	54.899	88.699	C.3	1	RES1	0.000	
22	 C13	14.457	54.543	89.563	C.3	1	RES1	0.000	
23	 C14	13.895	54.524	90.981	C.3	1	RES1	0.000	
24	 C15	11.589	53.942	91.854	C.2	1	RES1	0.000	
25	 C16	12.102	53.901	93.320	C.3	1	RES1	0.000	
26	 C17	11.378	55.862	94.663	C.2	1	RES1	0.000	
27	 C18	10.199	56.477	95.366	C.3	1	RES1	0.000	
28	 C51	12.338	52.456	93.877	C.3	1	RES1	0.000	
29	 C52	10.957	51.735	93.995	C.3	1	RES1	0.000	
30	 C53	12.944	52.515	95.279	C.3	1	RES1	0.000	
31	 C54	13.238	51.594	92.988	C.3	1	RES1	0.000	
32	 C55	12.187	52.587	85.268	C.2	1	RES1	0.000	
33	 C56	12.984	52.468	84.147	C.2	1	RES1	0.000	
34	 C57	15.690	51.320	80.605	C.2	1	RES1	0.000	
@<TRIPOS>BOND
1 1 4 1
2 2 17 1
3 2 19 1
4 3 19 2
5 4 8 ar
6 4 15 ar
7 7 8 ar
8 7 34 ar
9 8 11 1
10 11 13 ar
11 11 33 ar
12 13 14 ar
13 14 16 ar
14 16 17 1
15 17 18 1
16 19 20 1
17 5 20 1
18 20 21 1
19 21 22 1
20 6 22 1
21 22 23 1
22 5 23 1
23 5 24 1
24 10 24 2
25 24 25 1
26 9 25 1
27 25 28 1
28 9 26 1
29 12 26 2
30 26 27 1
31 28 29 1
32 28 30 1
33 28 31 1
34 16 32 ar
35 32 33 ar
36 15 34 ar
@<TRIPOS>SUBSTRUCTURE
1	RES1	1	GROUP	1 ****	RES
