# created with PyMOL 2.5.2
@<TRIPOS>MOLECULE
ER_4W9H_E3ligase
34 36 1                 
SMALL
USER_CHARGES
@<TRIPOS>ATOM
1	  C1	12.341	49.960	80.436	C.3	1	RES1	0.000	
2	  N1	11.049	52.836	87.665	N.pl3	1	RES1	0.000	
3	  O1	12.505	51.877	89.164	O.2	1	RES1	0.000	
4	  C2	13.663	50.556	80.862	C.2	1	RES1	0.000	
5	  N2	12.315	54.142	90.873	N.pl3	1	RES1	0.000	
6	  O2	15.412	55.533	89.817	O.3	1	RES1	0.000	
7	  S2	15.608	51.677	82.016	S.2	1	RES1	0.000	
8	  C3	13.979	51.109	82.089	C.2	1	RES1	0.000	
9	  N3	10.984	54.618	94.183	N.pl3	1	RES1	0.000	
10	  O3	10.204	53.782	91.759	O.2	1	RES1	0.000	
11	  C4	13.171	51.241	83.319	C.2	1	RES1	0.000	
12	  O4	12.232	56.525	94.628	O.2	1	RES1	0.000	
13	  C5	12.433	50.180	83.821	C.2	1	RES1	0.000	
14	  C6	11.663	50.306	84.956	C.2	1	RES1	0.000	
15	  N6	14.650	50.566	79.917	N.2	1	RES1	0.000	
16	  C7	11.594	51.545	85.654	C.2	1	RES1	0.000	
17	  C8	10.761	51.666	86.917	C.3	1	RES1	0.000	
18	  C9	9.248	51.556	86.568	C.3	1	RES1	0.000	
19	 C10	11.909	52.864	88.750	C.2	1	RES1	0.000	
20	 C11	12.032	54.217	89.460	C.3	1	RES1	0.000	
21	 C12	13.233	54.992	88.895	C.3	1	RES1	0.000	
22	 C13	14.386	54.595	89.818	C.3	1	RES1	0.000	
23	 C14	13.705	54.469	91.169	C.3	1	RES1	0.000	
24	 C15	11.423	53.927	91.942	C.2	1	RES1	0.000	
25	 C16	11.992	53.921	93.391	C.3	1	RES1	0.000	
26	 C17	11.204	55.869	94.750	C.2	1	RES1	0.000	
27	 C18	10.041	56.343	95.555	C.3	1	RES1	0.000	
28	 C53	12.310	52.497	93.918	C.3	1	RES1	0.000	
29	 C54	12.843	52.467	95.333	C.3	1	RES1	0.000	
30	 C55	13.377	51.846	93.029	C.3	1	RES1	0.000	
31	 C56	11.039	51.596	93.853	C.3	1	RES1	0.000	
32	 C57	12.347	52.613	85.134	C.2	1	RES1	0.000	
33	 C58	13.109	52.476	84.018	C.2	1	RES1	0.000	
34	 C59	15.745	51.126	80.414	C.2	1	RES1	0.000	
@<TRIPOS>BOND
1 1 4 1
2 2 17 1
3 2 19 1
4 3 19 2
5 4 8 ar
6 4 15 ar
7 7 8 ar
8 7 34 ar
9 8 11 1
10 11 13 ar
11 11 33 ar
12 13 14 ar
13 14 16 ar
14 16 17 1
15 17 18 1
16 19 20 1
17 5 20 1
18 20 21 1
19 21 22 1
20 6 22 1
21 22 23 1
22 5 23 1
23 5 24 1
24 10 24 2
25 24 25 1
26 9 25 1
27 25 28 1
28 9 26 1
29 12 26 2
30 26 27 1
31 28 29 1
32 28 30 1
33 28 31 1
34 16 32 ar
35 32 33 ar
36 15 34 ar
@<TRIPOS>SUBSTRUCTURE
1	RES1	1	GROUP	1 ****	RES
