# created with PyMOL 2.5.2
@<TRIPOS>MOLECULE
ER_5NVV_E3ligase
35 37 1                 
SMALL
USER_CHARGES
@<TRIPOS>ATOM
1	  C1	12.643	49.909	80.744	C.3	1	RES1	0.000	
2	  N1	11.541	53.256	87.847	N.pl3	1	RES1	0.000	
3	  O1	12.754	51.927	89.322	O.2	1	RES1	0.000	
4	  C2	13.938	50.475	81.185	C.2	1	RES1	0.000	
5	  N2	13.173	54.164	91.073	N.pl3	1	RES1	0.000	
6	  O2	14.367	56.875	90.297	O.3	1	RES1	0.000	
7	  S2	15.874	51.636	82.339	S.2	1	RES1	0.000	
8	  C3	14.250	51.110	82.388	C.2	1	RES1	0.000	
9	  N3	11.412	54.412	94.228	N.pl3	1	RES1	0.000	
10	  O3	11.024	53.610	91.633	O.2	1	RES1	0.000	
11	  C4	13.403	51.383	83.566	C.2	1	RES1	0.000	
12	  O4	12.602	56.273	94.846	O.2	1	RES1	0.000	
13	  C5	12.516	50.427	84.050	C.2	1	RES1	0.000	
14	  O5	10.436	57.402	96.088	O.3	1	RES1	0.000	
15	  C6	11.722	50.687	85.171	C.2	1	RES1	0.000	
16	  N6	14.985	50.390	80.291	N.2	1	RES1	0.000	
17	  C7	11.809	51.908	85.847	C.2	1	RES1	0.000	
18	  C8	10.980	52.161	87.088	C.3	1	RES1	0.000	
19	  C9	9.509	52.387	86.813	C.3	1	RES1	0.000	
20	 C10	12.432	53.035	88.917	C.2	1	RES1	0.000	
21	 C11	12.861	54.314	89.650	C.3	1	RES1	0.000	
22	 C12	14.175	54.834	89.022	C.3	1	RES1	0.000	
23	 C13	14.870	55.530	90.168	C.3	1	RES1	0.000	
24	 C14	14.486	54.712	91.382	C.3	1	RES1	0.000	
25	 C15	12.180	53.851	91.978	C.2	1	RES1	0.000	
26	 C16	12.521	53.741	93.526	C.3	1	RES1	0.000	
27	 C17	11.566	55.656	94.821	C.2	1	RES1	0.000	
28	 C18	10.251	56.176	95.430	C.3	1	RES1	0.000	
29	 C49	12.782	52.278	94.012	C.3	1	RES1	0.000	
30	 C50	11.451	51.506	93.956	C.3	1	RES1	0.000	
31	 C51	13.263	52.258	95.445	C.3	1	RES1	0.000	
32	 C52	13.815	51.536	93.121	C.3	1	RES1	0.000	
33	 C53	12.718	52.884	85.356	C.2	1	RES1	0.000	
34	 C54	13.492	52.604	84.248	C.2	1	RES1	0.000	
35	 C55	16.058	50.943	80.790	C.2	1	RES1	0.000	
@<TRIPOS>BOND
1 1 4 1
2 2 18 1
3 2 20 1
4 3 20 2
5 4 8 ar
6 4 16 ar
7 7 8 ar
8 7 35 ar
9 8 11 1
10 11 13 ar
11 11 34 ar
12 13 15 ar
13 15 17 ar
14 17 18 1
15 18 19 1
16 20 21 1
17 5 21 1
18 21 22 1
19 22 23 1
20 6 23 1
21 23 24 1
22 5 24 1
23 5 25 1
24 10 25 2
25 25 26 1
26 9 26 1
27 26 29 1
28 9 27 1
29 12 27 2
30 27 28 1
31 14 28 1
32 29 30 1
33 29 31 1
34 29 32 1
35 17 33 ar
36 33 34 ar
37 16 35 ar
@<TRIPOS>SUBSTRUCTURE
1	RES1	1	GROUP	1 ****	RES
