# created with PyMOL 2.5.2
@<TRIPOS>MOLECULE
ER_5NVV_E3ligase
35 37 1                 
SMALL
USER_CHARGES
@<TRIPOS>ATOM
1	  C1	12.620	49.919	80.738	C.3	1	RES1	0.000	
2	  N1	11.560	53.239	87.869	N.pl3	1	RES1	0.000	
3	  O1	12.756	51.975	89.345	O.2	1	RES1	0.000	
4	  C2	13.927	50.469	81.175	C.2	1	RES1	0.000	
5	  N2	13.163	54.189	91.106	N.pl3	1	RES1	0.000	
6	  O2	14.383	56.900	90.350	O.3	1	RES1	0.000	
7	  S2	15.890	51.599	82.320	S.2	1	RES1	0.000	
8	  C3	14.235	51.095	82.378	C.2	1	RES1	0.000	
9	  N3	11.430	54.402	94.231	N.pl3	1	RES1	0.000	
10	  O3	11.027	53.624	91.621	O.2	1	RES1	0.000	
11	  C4	13.408	51.365	83.546	C.2	1	RES1	0.000	
12	  O4	12.586	56.333	94.809	O.2	1	RES1	0.000	
13	  C5	12.496	50.419	84.048	C.2	1	RES1	0.000	
14	  O5	10.400	57.394	96.137	O.3	1	RES1	0.000	
15	  C6	11.734	50.695	85.164	C.2	1	RES1	0.000	
16	  N6	14.993	50.391	80.236	N.2	1	RES1	0.000	
17	  C7	11.827	51.908	85.846	C.2	1	RES1	0.000	
18	  C8	11.010	52.163	87.093	C.3	1	RES1	0.000	
19	  C9	9.534	52.388	86.785	C.3	1	RES1	0.000	
20	 C10	12.433	53.044	88.922	C.2	1	RES1	0.000	
21	 C11	12.847	54.334	89.658	C.3	1	RES1	0.000	
22	 C12	14.134	54.872	89.025	C.3	1	RES1	0.000	
23	 C13	14.868	55.529	90.172	C.3	1	RES1	0.000	
24	 C14	14.493	54.663	91.400	C.3	1	RES1	0.000	
25	 C15	12.167	53.850	92.003	C.2	1	RES1	0.000	
26	 C16	12.521	53.752	93.514	C.3	1	RES1	0.000	
27	 C17	11.560	55.649	94.829	C.2	1	RES1	0.000	
28	 C18	10.265	56.145	95.466	C.3	1	RES1	0.000	
29	 C51	12.783	52.280	94.001	C.3	1	RES1	0.000	
30	 C52	11.457	51.493	93.981	C.3	1	RES1	0.000	
31	 C53	13.286	52.255	95.443	C.3	1	RES1	0.000	
32	 C54	13.784	51.561	93.099	C.3	1	RES1	0.000	
33	 C55	12.740	52.853	85.338	C.2	1	RES1	0.000	
34	 C56	13.504	52.581	84.227	C.2	1	RES1	0.000	
35	 C57	16.068	50.933	80.754	C.2	1	RES1	0.000	
@<TRIPOS>BOND
1 1 4 1
2 2 18 1
3 2 20 1
4 3 20 2
5 4 8 ar
6 4 16 ar
7 7 8 ar
8 7 35 ar
9 8 11 1
10 11 13 ar
11 11 34 ar
12 13 15 ar
13 15 17 ar
14 17 18 1
15 18 19 1
16 20 21 1
17 5 21 1
18 21 22 1
19 22 23 1
20 6 23 1
21 23 24 1
22 5 24 1
23 5 25 1
24 10 25 2
25 25 26 1
26 9 26 1
27 26 29 1
28 9 27 1
29 12 27 2
30 27 28 1
31 14 28 1
32 29 30 1
33 29 31 1
34 29 32 1
35 17 33 ar
36 33 34 ar
37 16 35 ar
@<TRIPOS>SUBSTRUCTURE
1	RES1	1	GROUP	1 ****	RES
