# created with PyMOL 2.5.2
@<TRIPOS>MOLECULE
BRD4_6H0G_E3ligase
20 22 1                 
SMALL
USER_CHARGES
@<TRIPOS>ATOM
1	  N5	1.979	54.440	-85.619	N.pl3	1	RES1	0.000	
2	  N6	1.747	51.788	-82.111	N.2	1	RES1	0.000	
3	  O6	2.824	53.759	-82.865	O.2	1	RES1	0.000	
4	  N7	1.992	50.062	-78.883	N.pl3	1	RES1	0.000	
5	  O7	3.668	49.656	-77.440	O.3	1	RES1	0.000	
6	  O8	0.224	50.405	-80.257	O.2	1	RES1	0.000	
7	  O9	0.425	49.842	-82.213	O.2	1	RES1	0.000	
8	 C25	1.341	53.188	-85.438	C.2	1	RES1	0.000	
9	 C26	0.515	52.678	-86.463	C.2	1	RES1	0.000	
10	 C27	-0.196	51.464	-86.263	C.2	1	RES1	0.000	
11	 C28	-0.139	50.794	-85.062	C.2	1	RES1	0.000	
12	 C29	0.670	51.329	-84.065	C.2	1	RES1	0.000	
13	 C30	1.353	52.502	-84.267	C.2	1	RES1	0.000	
14	 C31	2.081	52.813	-82.989	C.2	1	RES1	0.000	
15	 C32	2.250	51.655	-80.722	C.3	1	RES1	0.000	
16	 C33	3.725	51.288	-80.642	C.3	1	RES1	0.000	
17	 C34	4.120	51.201	-79.175	C.3	1	RES1	0.000	
18	 C35	3.262	50.223	-78.416	C.3	1	RES1	0.000	
19	 C36	1.397	50.633	-79.985	C.2	1	RES1	0.000	
20	 C37	0.887	50.873	-82.690	C.2	1	RES1	0.000	
@<TRIPOS>BOND
1 1 8 1
2 8 9 ar
3 8 13 ar
4 9 10 ar
5 10 11 ar
6 11 12 ar
7 12 13 ar
8 12 20 ar
9 13 14 ar
10 2 14 ar
11 3 14 2
12 2 15 1
13 15 16 1
14 15 19 1
15 16 17 1
16 17 18 1
17 4 18 1
18 5 18 1
19 4 19 1
20 6 19 2
21 2 20 ar
22 7 20 2
@<TRIPOS>SUBSTRUCTURE
1	RES1	1	GROUP	1 ****	RES
