# created with PyMOL 2.5.2
@<TRIPOS>MOLECULE
ER_5NVV_E3ligase
35 37 1                 
SMALL
USER_CHARGES
@<TRIPOS>ATOM
1	  C1	12.605	49.859	80.762	C.3	1	RES1	0.000	
2	  N1	11.574	53.286	87.873	N.pl3	1	RES1	0.000	
3	  O1	12.824	52.035	89.355	O.2	1	RES1	0.000	
4	  C2	13.909	50.440	81.162	C.2	1	RES1	0.000	
5	  N2	13.195	54.195	91.071	N.pl3	1	RES1	0.000	
6	  O2	14.360	56.896	90.345	O.3	1	RES1	0.000	
7	  S2	15.898	51.547	82.331	S.2	1	RES1	0.000	
8	  C3	14.221	51.097	82.358	C.2	1	RES1	0.000	
9	  N3	11.419	54.376	94.203	N.pl3	1	RES1	0.000	
10	  O3	11.033	53.610	91.598	O.2	1	RES1	0.000	
11	  C4	13.395	51.385	83.541	C.2	1	RES1	0.000	
12	  O4	12.592	56.258	94.857	O.2	1	RES1	0.000	
13	  C5	13.470	52.645	84.171	C.2	1	RES1	0.000	
14	  O5	10.445	57.368	96.132	O.3	1	RES1	0.000	
15	  C6	12.715	52.900	85.334	C.2	1	RES1	0.000	
16	  N6	14.946	50.361	80.271	N.2	1	RES1	0.000	
17	  C7	11.848	51.911	85.856	C.2	1	RES1	0.000	
18	  C8	11.030	52.151	87.131	C.3	1	RES1	0.000	
19	  C9	9.522	52.349	86.824	C.3	1	RES1	0.000	
20	 C10	12.439	53.128	88.895	C.2	1	RES1	0.000	
21	 C11	12.868	54.411	89.640	C.3	1	RES1	0.000	
22	 C12	14.174	54.923	89.048	C.3	1	RES1	0.000	
23	 C13	14.877	55.578	90.196	C.3	1	RES1	0.000	
24	 C14	14.500	54.707	91.400	C.3	1	RES1	0.000	
25	 C15	12.158	53.847	91.968	C.2	1	RES1	0.000	
26	 C16	12.526	53.711	93.485	C.3	1	RES1	0.000	
27	 C17	11.551	55.618	94.812	C.2	1	RES1	0.000	
28	 C18	10.266	56.123	95.459	C.3	1	RES1	0.000	
29	 C53	12.746	52.271	93.963	C.3	1	RES1	0.000	
30	 C54	11.393	51.508	94.016	C.3	1	RES1	0.000	
31	 C55	13.276	52.259	95.424	C.3	1	RES1	0.000	
32	 C56	13.707	51.475	93.094	C.3	1	RES1	0.000	
33	 C57	11.795	50.677	85.237	C.2	1	RES1	0.000	
34	 C58	12.568	50.411	84.100	C.2	1	RES1	0.000	
35	 C59	16.028	50.900	80.741	C.2	1	RES1	0.000	
@<TRIPOS>BOND
1 1 4 1
2 2 18 1
3 2 20 1
4 3 20 2
5 4 8 ar
6 4 16 ar
7 7 8 ar
8 7 35 ar
9 8 11 1
10 11 13 ar
11 11 34 ar
12 13 15 ar
13 15 17 ar
14 17 18 1
15 18 19 1
16 20 21 1
17 5 21 1
18 21 22 1
19 22 23 1
20 6 23 1
21 23 24 1
22 5 24 1
23 5 25 1
24 10 25 2
25 25 26 1
26 9 26 1
27 26 29 1
28 9 27 1
29 12 27 2
30 27 28 1
31 14 28 1
32 29 30 1
33 29 31 1
34 29 32 1
35 17 33 ar
36 33 34 ar
37 16 35 ar
@<TRIPOS>SUBSTRUCTURE
1	RES1	1	GROUP	1 ****	RES
