# created with PyMOL 2.5.2
@<TRIPOS>MOLECULE
ER_5NVV_E3ligase
35 37 1                 
SMALL
USER_CHARGES
@<TRIPOS>ATOM
1	  C1	12.761	49.962	80.702	C.3	1	RES1	0.000	
2	  N1	11.494	53.030	87.928	N.pl3	1	RES1	0.000	
3	  O1	12.824	51.789	89.307	O.2	1	RES1	0.000	
4	  C2	14.025	50.630	81.144	C.2	1	RES1	0.000	
5	  N2	13.114	54.073	91.031	N.pl3	1	RES1	0.000	
6	  O2	14.341	56.718	90.365	O.3	1	RES1	0.000	
7	  S2	15.928	51.781	82.379	S.2	1	RES1	0.000	
8	  C3	14.273	51.222	82.384	C.2	1	RES1	0.000	
9	  N3	11.433	54.528	94.193	N.pl3	1	RES1	0.000	
10	  O3	10.896	53.676	91.634	O.2	1	RES1	0.000	
11	  C4	13.439	51.396	83.550	C.2	1	RES1	0.000	
12	  O4	12.654	56.386	94.765	O.2	1	RES1	0.000	
13	  C5	12.617	50.376	84.024	C.2	1	RES1	0.000	
14	  O5	10.601	57.548	96.108	O.3	1	RES1	0.000	
15	  C6	11.848	50.503	85.172	C.2	1	RES1	0.000	
16	  N6	15.066	50.650	80.242	N.2	1	RES1	0.000	
17	  C7	11.869	51.694	85.894	C.2	1	RES1	0.000	
18	  C8	11.010	51.899	87.144	C.3	1	RES1	0.000	
19	  C9	9.532	52.100	86.782	C.3	1	RES1	0.000	
20	 C10	12.411	52.883	88.969	C.2	1	RES1	0.000	
21	 C11	12.784	54.241	89.609	C.3	1	RES1	0.000	
22	 C12	14.090	54.767	89.010	C.3	1	RES1	0.000	
23	 C13	14.825	55.418	90.169	C.3	1	RES1	0.000	
24	 C14	14.440	54.514	91.348	C.3	1	RES1	0.000	
25	 C15	12.059	53.883	91.967	C.2	1	RES1	0.000	
26	 C16	12.454	53.803	93.462	C.3	1	RES1	0.000	
27	 C17	11.609	55.757	94.772	C.2	1	RES1	0.000	
28	 C18	10.357	56.313	95.446	C.3	1	RES1	0.000	
29	 C55	12.645	52.351	93.992	C.3	1	RES1	0.000	
30	 C56	11.343	51.515	93.966	C.3	1	RES1	0.000	
31	 C57	13.167	52.362	95.437	C.3	1	RES1	0.000	
32	 C58	13.717	51.619	93.156	C.3	1	RES1	0.000	
33	 C59	12.697	52.740	85.467	C.2	1	RES1	0.000	
34	 C60	13.483	52.589	84.303	C.2	1	RES1	0.000	
35	 C61	16.082	51.246	80.781	C.2	1	RES1	0.000	
@<TRIPOS>BOND
1 1 4 1
2 2 18 1
3 2 20 1
4 3 20 2
5 4 8 ar
6 4 16 ar
7 7 8 ar
8 7 35 ar
9 8 11 1
10 11 13 ar
11 11 34 ar
12 13 15 ar
13 15 17 ar
14 16 35 ar
15 17 18 1
16 18 19 1
17 20 21 1
18 5 21 1
19 21 22 1
20 22 23 1
21 6 23 1
22 23 24 1
23 5 24 1
24 5 25 1
25 10 25 2
26 25 26 1
27 9 26 1
28 26 29 1
29 9 27 1
30 12 27 2
31 27 28 1
32 14 28 1
33 29 30 1
34 29 31 1
35 29 32 1
36 17 33 ar
37 33 34 ar
@<TRIPOS>SUBSTRUCTURE
1	RES1	1	GROUP	1 ****	RES
