# created with PyMOL 2.5.2
@<TRIPOS>MOLECULE
ER_5NVV_E3ligase
35 37 1                 
SMALL
USER_CHARGES
@<TRIPOS>ATOM
1	  C1	12.658	49.912	80.627	C.3	1	RES1	0.000	
2	  N1	11.625	53.256	87.780	N.pl3	1	RES1	0.000	
3	  O1	12.813	52.008	89.290	O.2	1	RES1	0.000	
4	  C2	13.955	50.461	81.023	C.2	1	RES1	0.000	
5	  N2	12.985	54.177	91.104	N.pl3	1	RES1	0.000	
6	  O2	14.376	56.804	90.683	O.3	1	RES1	0.000	
7	  S2	15.995	51.479	82.176	S.2	1	RES1	0.000	
8	  C3	14.318	51.083	82.235	C.2	1	RES1	0.000	
9	  N3	11.355	54.428	94.309	N.pl3	1	RES1	0.000	
10	  O3	10.843	53.661	91.752	O.2	1	RES1	0.000	
11	  C4	13.524	51.373	83.426	C.2	1	RES1	0.000	
12	  O4	12.432	56.388	94.860	O.2	1	RES1	0.000	
13	  C5	13.631	52.583	84.121	C.2	1	RES1	0.000	
14	  O5	10.281	57.362	96.217	O.3	1	RES1	0.000	
15	  C6	12.876	52.835	85.264	C.2	1	RES1	0.000	
16	  N6	14.998	50.365	80.092	N.2	1	RES1	0.000	
17	  C7	11.988	51.868	85.780	C.2	1	RES1	0.000	
18	  C8	11.117	52.145	86.999	C.3	1	RES1	0.000	
19	  C9	9.673	52.371	86.589	C.3	1	RES1	0.000	
20	 C10	12.459	53.101	88.864	C.2	1	RES1	0.000	
21	 C11	12.763	54.378	89.659	C.3	1	RES1	0.000	
22	 C12	14.077	54.962	89.139	C.3	1	RES1	0.000	
23	 C13	14.790	55.472	90.395	C.3	1	RES1	0.000	
24	 C14	14.350	54.517	91.480	C.3	1	RES1	0.000	
25	 C15	12.032	53.870	92.064	C.2	1	RES1	0.000	
26	 C16	12.450	53.800	93.544	C.3	1	RES1	0.000	
27	 C17	11.447	55.687	94.894	C.2	1	RES1	0.000	
28	 C18	10.161	56.108	95.577	C.3	1	RES1	0.000	
29	 C57	12.762	52.340	94.062	C.3	1	RES1	0.000	
30	 C58	11.535	51.425	93.948	C.3	1	RES1	0.000	
31	 C59	13.183	52.403	95.518	C.3	1	RES1	0.000	
32	 C60	13.899	51.727	93.241	C.3	1	RES1	0.000	
33	 C61	11.908	50.633	85.124	C.2	1	RES1	0.000	
34	 C62	12.654	50.373	83.961	C.2	1	RES1	0.000	
35	 C63	16.113	50.879	80.617	C.2	1	RES1	0.000	
@<TRIPOS>BOND
1 1 4 1
2 2 18 1
3 2 20 1
4 3 20 2
5 4 8 ar
6 4 16 ar
7 7 8 ar
8 7 35 ar
9 8 11 1
10 11 13 ar
11 11 34 ar
12 13 15 ar
13 15 17 ar
14 16 35 ar
15 17 18 1
16 18 19 1
17 20 21 1
18 5 21 1
19 21 22 1
20 22 23 1
21 6 23 1
22 23 24 1
23 5 24 1
24 5 25 1
25 10 25 2
26 25 26 1
27 9 26 1
28 26 29 1
29 9 27 1
30 12 27 2
31 27 28 1
32 14 28 1
33 29 30 1
34 29 31 1
35 29 32 1
36 17 33 ar
37 33 34 ar
@<TRIPOS>SUBSTRUCTURE
1	RES1	1	GROUP	1 ****	RES
