# created with PyMOL 2.5.2
@<TRIPOS>MOLECULE
ER_5NVV_E3ligase
35 37 1                 
SMALL
USER_CHARGES
@<TRIPOS>ATOM
1	  C1	12.823	49.951	80.593	C.3	1	RES1	0.000	
2	  N1	11.526	53.125	87.790	N.pl3	1	RES1	0.000	
3	  O1	12.725	51.895	89.320	O.2	1	RES1	0.000	
4	  C2	14.111	50.555	81.069	C.2	1	RES1	0.000	
5	  N2	12.924	54.126	91.051	N.pl3	1	RES1	0.000	
6	  O2	14.458	56.681	90.528	O.3	1	RES1	0.000	
7	  S2	15.968	51.734	82.344	S.2	1	RES1	0.000	
8	  C3	14.346	51.139	82.304	C.2	1	RES1	0.000	
9	  N3	11.382	54.511	94.280	N.pl3	1	RES1	0.000	
10	  O3	10.798	53.668	91.763	O.2	1	RES1	0.000	
11	  C4	13.471	51.348	83.476	C.2	1	RES1	0.000	
12	  O4	12.517	56.465	94.722	O.2	1	RES1	0.000	
13	  C5	13.510	52.571	84.165	C.2	1	RES1	0.000	
14	  O5	10.470	57.452	96.266	O.3	1	RES1	0.000	
15	  C6	12.733	52.766	85.299	C.2	1	RES1	0.000	
16	  N6	15.169	50.531	80.220	N.2	1	RES1	0.000	
17	  C7	11.887	51.762	85.779	C.2	1	RES1	0.000	
18	  C8	11.007	51.982	87.022	C.3	1	RES1	0.000	
19	  C9	9.538	52.167	86.679	C.3	1	RES1	0.000	
20	 C10	12.356	52.994	88.872	C.2	1	RES1	0.000	
21	 C11	12.716	54.302	89.603	C.3	1	RES1	0.000	
22	 C12	14.073	54.785	89.058	C.3	1	RES1	0.000	
23	 C13	14.817	55.306	90.281	C.3	1	RES1	0.000	
24	 C14	14.305	54.414	91.399	C.3	1	RES1	0.000	
25	 C15	11.973	53.881	92.042	C.2	1	RES1	0.000	
26	 C16	12.439	53.835	93.529	C.3	1	RES1	0.000	
27	 C17	11.512	55.763	94.821	C.2	1	RES1	0.000	
28	 C18	10.303	56.170	95.666	C.3	1	RES1	0.000	
29	 C59	12.762	52.395	94.039	C.3	1	RES1	0.000	
30	 C60	11.522	51.469	93.993	C.3	1	RES1	0.000	
31	 C61	13.235	52.474	95.508	C.3	1	RES1	0.000	
32	 C62	13.871	51.734	93.218	C.3	1	RES1	0.000	
33	 C63	11.830	50.572	85.086	C.2	1	RES1	0.000	
34	 C64	12.609	50.371	83.955	C.2	1	RES1	0.000	
35	 C65	16.203	51.139	80.760	C.2	1	RES1	0.000	
@<TRIPOS>BOND
1 1 4 1
2 2 18 1
3 2 20 1
4 3 20 2
5 4 8 ar
6 4 16 ar
7 7 8 ar
8 7 35 ar
9 8 11 1
10 11 13 ar
11 11 34 ar
12 13 15 ar
13 15 17 ar
14 16 35 ar
15 17 18 1
16 18 19 1
17 20 21 1
18 5 21 1
19 21 22 1
20 22 23 1
21 6 23 1
22 23 24 1
23 5 24 1
24 5 25 1
25 10 25 2
26 25 26 1
27 9 26 1
28 26 29 1
29 9 27 1
30 12 27 2
31 27 28 1
32 14 28 1
33 29 30 1
34 29 31 1
35 29 32 1
36 17 33 ar
37 33 34 ar
@<TRIPOS>SUBSTRUCTURE
1	RES1	1	GROUP	1 ****	RES
