# created with PyMOL 2.5.2
@<TRIPOS>MOLECULE
ER_5NVV_E3ligase
35 37 1                 
SMALL
USER_CHARGES
@<TRIPOS>ATOM
1	  C1	12.685	49.889	80.698	C.3	1	RES1	0.000	
2	  N1	11.550	53.095	87.927	N.pl3	1	RES1	0.000	
3	  O1	12.821	51.918	89.412	O.2	1	RES1	0.000	
4	  C2	13.947	50.515	81.092	C.2	1	RES1	0.000	
5	  N2	13.062	54.147	91.078	N.pl3	1	RES1	0.000	
6	  O2	14.392	56.789	90.587	O.3	1	RES1	0.000	
7	  S2	15.936	51.642	82.240	S.2	1	RES1	0.000	
8	  C3	14.290	51.117	82.306	C.2	1	RES1	0.000	
9	  N3	11.388	54.486	94.257	N.pl3	1	RES1	0.000	
10	  O3	10.896	53.719	91.661	O.2	1	RES1	0.000	
11	  C4	13.489	51.355	83.496	C.2	1	RES1	0.000	
12	  O4	12.573	56.358	94.779	O.2	1	RES1	0.000	
13	  C5	12.619	50.401	83.998	C.2	1	RES1	0.000	
14	  O5	10.482	57.481	96.165	O.3	1	RES1	0.000	
15	  C6	11.860	50.606	85.135	C.2	1	RES1	0.000	
16	  N6	14.989	50.490	80.151	N.2	1	RES1	0.000	
17	  C7	11.930	51.820	85.839	C.2	1	RES1	0.000	
18	  C8	11.065	52.026	87.099	C.3	1	RES1	0.000	
19	  C9	9.578	52.129	86.780	C.3	1	RES1	0.000	
20	 C10	12.422	52.977	88.988	C.2	1	RES1	0.000	
21	 C11	12.790	54.335	89.667	C.3	1	RES1	0.000	
22	 C12	14.016	54.937	89.058	C.3	1	RES1	0.000	
23	 C13	14.819	55.468	90.256	C.3	1	RES1	0.000	
24	 C14	14.443	54.484	91.371	C.3	1	RES1	0.000	
25	 C15	12.062	53.893	92.007	C.2	1	RES1	0.000	
26	 C16	12.450	53.803	93.492	C.3	1	RES1	0.000	
27	 C17	11.532	55.697	94.843	C.2	1	RES1	0.000	
28	 C18	10.274	56.226	95.500	C.3	1	RES1	0.000	
29	 C41	12.682	52.317	93.990	C.3	1	RES1	0.000	
30	 C42	11.417	51.438	93.968	C.3	1	RES1	0.000	
31	 C43	13.225	52.354	95.443	C.3	1	RES1	0.000	
32	 C44	13.781	51.673	93.101	C.3	1	RES1	0.000	
33	 C45	12.820	52.797	85.339	C.2	1	RES1	0.000	
34	 C46	13.581	52.556	84.218	C.2	1	RES1	0.000	
35	 C47	16.063	51.037	80.639	C.2	1	RES1	0.000	
@<TRIPOS>BOND
1 1 4 1
2 2 18 1
3 2 20 1
4 3 20 2
5 4 8 ar
6 4 16 ar
7 7 8 ar
8 7 35 ar
9 8 11 1
10 11 13 ar
11 11 34 ar
12 13 15 ar
13 15 17 ar
14 17 18 1
15 18 19 1
16 20 21 1
17 5 21 1
18 21 22 1
19 22 23 1
20 6 23 1
21 23 24 1
22 5 24 1
23 5 25 1
24 10 25 2
25 25 26 1
26 9 26 1
27 26 29 1
28 9 27 1
29 12 27 2
30 27 28 1
31 14 28 1
32 29 30 1
33 29 31 1
34 29 32 1
35 17 33 ar
36 33 34 ar
37 16 35 ar
@<TRIPOS>SUBSTRUCTURE
1	RES1	1	GROUP	1 ****	RES
