# created with PyMOL 2.5.2
@<TRIPOS>MOLECULE
ER_4W9H_E3ligase
34 36 1                 
SMALL
USER_CHARGES
@<TRIPOS>ATOM
1	  C1	12.305	49.972	80.517	C.3	1	RES1	0.000	
2	  N1	11.039	52.848	87.775	N.pl3	1	RES1	0.000	
3	  O1	12.516	51.876	89.265	O.2	1	RES1	0.000	
4	  C2	13.584	50.576	80.968	C.2	1	RES1	0.000	
5	  N2	12.491	54.177	90.821	N.pl3	1	RES1	0.000	
6	  O2	15.453	55.693	89.510	O.3	1	RES1	0.000	
7	  S2	15.470	51.748	82.176	S.2	1	RES1	0.000	
8	  C3	13.868	51.127	82.211	C.2	1	RES1	0.000	
9	  N3	11.081	54.624	94.120	N.pl3	1	RES1	0.000	
10	  O3	10.386	53.786	91.583	O.2	1	RES1	0.000	
11	  C4	13.039	51.245	83.427	C.2	1	RES1	0.000	
12	  O4	12.449	56.392	94.680	O.2	1	RES1	0.000	
13	  C5	12.320	50.134	83.905	C.2	1	RES1	0.000	
14	  C6	11.576	50.256	85.083	C.2	1	RES1	0.000	
15	  N6	14.614	50.616	80.038	N.2	1	RES1	0.000	
16	  C7	11.518	51.494	85.789	C.2	1	RES1	0.000	
17	  C8	10.690	51.631	87.050	C.3	1	RES1	0.000	
18	  C9	9.179	51.588	86.780	C.3	1	RES1	0.000	
19	 C10	11.935	52.868	88.838	C.2	1	RES1	0.000	
20	 C11	12.090	54.292	89.458	C.3	1	RES1	0.000	
21	 C12	13.240	55.076	88.790	C.3	1	RES1	0.000	
22	 C13	14.470	54.662	89.587	C.3	1	RES1	0.000	
23	 C14	13.910	54.525	91.010	C.3	1	RES1	0.000	
24	 C15	11.570	53.955	91.861	C.2	1	RES1	0.000	
25	 C16	12.061	53.861	93.307	C.3	1	RES1	0.000	
26	 C17	11.399	55.811	94.718	C.2	1	RES1	0.000	
27	 C18	10.206	56.415	95.440	C.3	1	RES1	0.000	
28	 C43	12.285	52.412	93.801	C.3	1	RES1	0.000	
29	 C44	10.905	51.691	93.873	C.3	1	RES1	0.000	
30	 C45	12.881	52.423	95.218	C.3	1	RES1	0.000	
31	 C46	13.184	51.591	92.892	C.3	1	RES1	0.000	
32	 C47	12.207	52.581	85.279	C.2	1	RES1	0.000	
33	 C48	12.977	52.468	84.110	C.2	1	RES1	0.000	
34	 C49	15.656	51.212	80.579	C.2	1	RES1	0.000	
@<TRIPOS>BOND
1 1 4 1
2 2 17 1
3 2 19 1
4 3 19 2
5 4 8 ar
6 4 15 ar
7 7 8 ar
8 7 34 ar
9 8 11 1
10 11 13 ar
11 11 33 ar
12 13 14 ar
13 14 16 ar
14 16 17 1
15 17 18 1
16 19 20 1
17 5 20 1
18 20 21 1
19 21 22 1
20 6 22 1
21 22 23 1
22 5 23 1
23 5 24 1
24 10 24 2
25 24 25 1
26 9 25 1
27 25 28 1
28 9 26 1
29 12 26 2
30 26 27 1
31 28 29 1
32 28 30 1
33 28 31 1
34 16 32 ar
35 32 33 ar
36 15 34 ar
@<TRIPOS>SUBSTRUCTURE
1	RES1	1	GROUP	1 ****	RES
