# created with PyMOL 2.5.2
@<TRIPOS>MOLECULE
ER_4W9H_E3ligase
34 36 1                 
SMALL
USER_CHARGES
@<TRIPOS>ATOM
1	  C1	12.159	49.942	80.426	C.3	1	RES1	0.000	
2	  N1	11.209	53.106	87.691	N.pl3	1	RES1	0.000	
3	  O1	12.375	51.831	89.225	O.2	1	RES1	0.000	
4	  C2	13.495	50.393	80.904	C.2	1	RES1	0.000	
5	  N2	12.801	54.127	90.906	N.pl3	1	RES1	0.000	
6	  O2	14.131	56.737	90.126	O.3	1	RES1	0.000	
7	  S2	15.476	51.381	82.184	S.2	1	RES1	0.000	
8	  C3	13.802	50.968	82.149	C.2	1	RES1	0.000	
9	  N3	11.054	54.500	94.021	N.pl3	1	RES1	0.000	
10	  O3	10.618	53.654	91.441	O.2	1	RES1	0.000	
11	  C4	12.986	51.233	83.308	C.2	1	RES1	0.000	
12	  O4	12.405	56.267	94.722	O.2	1	RES1	0.000	
13	  C5	13.088	52.475	83.981	C.2	1	RES1	0.000	
14	  C6	12.317	52.728	85.138	C.2	1	RES1	0.000	
15	  N6	14.561	50.286	80.024	N.2	1	RES1	0.000	
16	  C7	11.464	51.765	85.672	C.2	1	RES1	0.000	
17	  C8	10.660	51.993	86.934	C.3	1	RES1	0.000	
18	  C9	9.173	52.199	86.656	C.3	1	RES1	0.000	
19	 C10	12.045	52.946	88.766	C.2	1	RES1	0.000	
20	 C11	12.480	54.223	89.463	C.3	1	RES1	0.000	
21	 C12	13.807	54.707	88.834	C.3	1	RES1	0.000	
22	 C13	14.540	55.359	89.978	C.3	1	RES1	0.000	
23	 C14	14.145	54.544	91.190	C.3	1	RES1	0.000	
24	 C15	11.787	53.831	91.829	C.2	1	RES1	0.000	
25	 C16	12.117	53.755	93.315	C.3	1	RES1	0.000	
26	 C17	11.300	55.700	94.651	C.2	1	RES1	0.000	
27	 C18	10.066	56.316	95.249	C.3	1	RES1	0.000	
28	 C44	12.288	52.308	93.871	C.3	1	RES1	0.000	
29	 C45	10.943	51.570	93.820	C.3	1	RES1	0.000	
30	 C46	12.754	52.332	95.312	C.3	1	RES1	0.000	
31	 C47	13.311	51.488	93.043	C.3	1	RES1	0.000	
32	 C48	11.387	50.531	85.025	C.2	1	RES1	0.000	
33	 C49	12.151	50.270	83.884	C.2	1	RES1	0.000	
34	 C50	15.651	50.755	80.574	C.2	1	RES1	0.000	
@<TRIPOS>BOND
1 1 4 1
2 2 17 1
3 2 19 1
4 3 19 2
5 4 8 ar
6 4 15 ar
7 7 8 ar
8 7 34 ar
9 8 11 1
10 11 13 ar
11 11 33 ar
12 13 14 ar
13 14 16 ar
14 16 17 1
15 17 18 1
16 19 20 1
17 5 20 1
18 20 21 1
19 21 22 1
20 6 22 1
21 22 23 1
22 5 23 1
23 5 24 1
24 10 24 2
25 24 25 1
26 9 25 1
27 25 28 1
28 9 26 1
29 12 26 2
30 26 27 1
31 28 29 1
32 28 30 1
33 28 31 1
34 16 32 ar
35 32 33 ar
36 15 34 ar
@<TRIPOS>SUBSTRUCTURE
1	RES1	1	GROUP	1 ****	RES
