# created with PyMOL 2.5.2
@<TRIPOS>MOLECULE
ER_4W9H_E3ligase
34 36 1                 
SMALL
USER_CHARGES
@<TRIPOS>ATOM
1	  C1	12.191	49.824	80.561	C.3	1	RES1	0.000	
2	  N1	11.210	53.107	87.672	N.pl3	1	RES1	0.000	
3	  O1	12.317	51.837	89.250	O.2	1	RES1	0.000	
4	  C2	13.502	50.393	80.968	C.2	1	RES1	0.000	
5	  N2	12.809	54.081	90.858	N.pl3	1	RES1	0.000	
6	  O2	14.118	56.734	90.132	O.3	1	RES1	0.000	
7	  S2	15.508	51.434	82.146	S.2	1	RES1	0.000	
8	  C3	13.838	50.971	82.176	C.2	1	RES1	0.000	
9	  N3	11.071	54.505	93.992	N.pl3	1	RES1	0.000	
10	  O3	10.649	53.642	91.403	O.2	1	RES1	0.000	
11	  C4	13.012	51.236	83.365	C.2	1	RES1	0.000	
12	  O4	12.434	56.225	94.741	O.2	1	RES1	0.000	
13	  C5	12.137	50.278	83.882	C.2	1	RES1	0.000	
14	  C6	11.377	50.526	85.009	C.2	1	RES1	0.000	
15	  N6	14.503	50.327	80.045	N.2	1	RES1	0.000	
16	  C7	11.466	51.747	85.689	C.2	1	RES1	0.000	
17	  C8	10.636	51.991	86.945	C.3	1	RES1	0.000	
18	  C9	9.149	52.201	86.686	C.3	1	RES1	0.000	
19	 C10	12.062	52.955	88.763	C.2	1	RES1	0.000	
20	 C11	12.499	54.233	89.425	C.3	1	RES1	0.000	
21	 C12	13.792	54.755	88.824	C.3	1	RES1	0.000	
22	 C13	14.558	55.373	89.962	C.3	1	RES1	0.000	
23	 C14	14.146	54.527	91.163	C.3	1	RES1	0.000	
24	 C15	11.777	53.825	91.798	C.2	1	RES1	0.000	
25	 C16	12.111	53.734	93.298	C.3	1	RES1	0.000	
26	 C17	11.328	55.719	94.636	C.2	1	RES1	0.000	
27	 C18	10.113	56.348	95.222	C.3	1	RES1	0.000	
28	 C45	12.259	52.294	93.849	C.3	1	RES1	0.000	
29	 C46	10.903	51.570	93.814	C.3	1	RES1	0.000	
30	 C47	12.734	52.340	95.298	C.3	1	RES1	0.000	
31	 C48	13.260	51.449	93.031	C.3	1	RES1	0.000	
32	 C49	12.347	52.717	85.167	C.2	1	RES1	0.000	
33	 C50	13.096	52.461	84.042	C.2	1	RES1	0.000	
34	 C51	15.608	50.857	80.519	C.2	1	RES1	0.000	
@<TRIPOS>BOND
1 1 4 1
2 2 17 1
3 2 19 1
4 3 19 2
5 4 8 ar
6 4 15 ar
7 7 8 ar
8 7 34 ar
9 8 11 1
10 11 13 ar
11 11 33 ar
12 13 14 ar
13 14 16 ar
14 16 17 1
15 17 18 1
16 19 20 1
17 5 20 1
18 20 21 1
19 21 22 1
20 6 22 1
21 22 23 1
22 5 23 1
23 5 24 1
24 10 24 2
25 24 25 1
26 9 25 1
27 25 28 1
28 9 26 1
29 12 26 2
30 26 27 1
31 28 29 1
32 28 30 1
33 28 31 1
34 16 32 ar
35 32 33 ar
36 15 34 ar
@<TRIPOS>SUBSTRUCTURE
1	RES1	1	GROUP	1 ****	RES
