# created with PyMOL 2.5.2
@<TRIPOS>MOLECULE
ER_4W9H_E3ligase
34 36 1                 
SMALL
USER_CHARGES
@<TRIPOS>ATOM
1	  C1	12.300	50.042	80.488	C.3	1	RES1	0.000	
2	  N1	11.012	52.755	87.786	N.pl3	1	RES1	0.000	
3	  O1	12.449	51.808	89.259	O.2	1	RES1	0.000	
4	  C2	13.585	50.652	80.920	C.2	1	RES1	0.000	
5	  N2	12.476	54.141	90.831	N.pl3	1	RES1	0.000	
6	  O2	15.446	55.537	89.445	O.3	1	RES1	0.000	
7	  S2	15.491	51.786	82.138	S.2	1	RES1	0.000	
8	  C3	13.880	51.187	82.167	C.2	1	RES1	0.000	
9	  N3	11.103	54.655	94.124	N.pl3	1	RES1	0.000	
10	  O3	10.357	53.802	91.598	O.2	1	RES1	0.000	
11	  C4	13.072	51.289	83.382	C.2	1	RES1	0.000	
12	  O4	12.513	56.439	94.608	O.2	1	RES1	0.000	
13	  C5	13.004	52.465	84.129	C.2	1	RES1	0.000	
14	  C6	12.254	52.537	85.298	C.2	1	RES1	0.000	
15	  N6	14.629	50.673	80.007	N.2	1	RES1	0.000	
16	  C7	11.575	51.439	85.791	C.2	1	RES1	0.000	
17	  C8	10.730	51.558	87.056	C.3	1	RES1	0.000	
18	  C9	9.232	51.443	86.734	C.3	1	RES1	0.000	
19	 C10	11.887	52.799	88.842	C.2	1	RES1	0.000	
20	 C11	12.053	54.199	89.458	C.3	1	RES1	0.000	
21	 C12	13.181	54.928	88.766	C.3	1	RES1	0.000	
22	 C13	14.399	54.589	89.571	C.3	1	RES1	0.000	
23	 C14	13.873	54.468	90.993	C.3	1	RES1	0.000	
24	 C15	11.533	53.950	91.905	C.2	1	RES1	0.000	
25	 C16	12.076	53.899	93.328	C.3	1	RES1	0.000	
26	 C17	11.418	55.891	94.692	C.2	1	RES1	0.000	
27	 C18	10.254	56.531	95.415	C.3	1	RES1	0.000	
28	 C46	12.268	52.448	93.890	C.3	1	RES1	0.000	
29	 C47	10.894	51.804	94.092	C.3	1	RES1	0.000	
30	 C48	12.966	52.518	95.260	C.3	1	RES1	0.000	
31	 C49	13.107	51.537	92.978	C.3	1	RES1	0.000	
32	 C50	11.601	50.260	85.045	C.2	1	RES1	0.000	
33	 C51	12.332	50.165	83.857	C.2	1	RES1	0.000	
34	 C52	15.654	51.259	80.515	C.2	1	RES1	0.000	
@<TRIPOS>BOND
1 1 4 1
2 2 17 1
3 2 19 1
4 3 19 2
5 4 8 ar
6 4 15 ar
7 7 8 ar
8 7 34 ar
9 8 11 1
10 11 13 ar
11 11 33 ar
12 13 14 ar
13 14 16 ar
14 16 17 1
15 17 18 1
16 19 20 1
17 5 20 1
18 20 21 1
19 21 22 1
20 6 22 1
21 22 23 1
22 5 23 1
23 5 24 1
24 10 24 2
25 24 25 1
26 9 25 1
27 25 28 1
28 9 26 1
29 12 26 2
30 26 27 1
31 28 29 1
32 28 30 1
33 28 31 1
34 16 32 ar
35 32 33 ar
36 15 34 ar
@<TRIPOS>SUBSTRUCTURE
1	RES1	1	GROUP	1 ****	RES
