# created with PyMOL 2.5.2
@<TRIPOS>MOLECULE
ER_4W9H_E3ligase
34 36 1                 
SMALL
USER_CHARGES
@<TRIPOS>ATOM
1	  C1	12.267	49.970	80.458	C.3	1	RES1	0.000	
2	  N1	11.145	52.843	87.788	N.pl3	1	RES1	0.000	
3	  O1	12.640	51.899	89.285	O.2	1	RES1	0.000	
4	  C2	13.569	50.555	80.878	C.2	1	RES1	0.000	
5	  N2	12.496	54.171	90.875	N.pl3	1	RES1	0.000	
6	  O2	15.465	55.746	89.715	O.3	1	RES1	0.000	
7	  S2	15.567	51.612	82.077	S.2	1	RES1	0.000	
8	  C3	13.907	51.124	82.114	C.2	1	RES1	0.000	
9	  N3	10.904	54.543	94.078	N.pl3	1	RES1	0.000	
10	  O3	10.344	53.689	91.526	O.2	1	RES1	0.000	
11	  C4	13.114	51.287	83.360	C.2	1	RES1	0.000	
12	  O4	12.140	56.412	94.721	O.2	1	RES1	0.000	
13	  C5	13.104	52.480	84.069	C.2	1	RES1	0.000	
14	  C6	12.334	52.618	85.241	C.2	1	RES1	0.000	
15	  N6	14.592	50.590	79.924	N.2	1	RES1	0.000	
16	  C7	11.610	51.515	85.736	C.2	1	RES1	0.000	
17	  C8	10.801	51.649	87.032	C.3	1	RES1	0.000	
18	  C9	9.282	51.403	86.846	C.3	1	RES1	0.000	
19	 C10	12.034	52.876	88.840	C.2	1	RES1	0.000	
20	 C11	12.171	54.288	89.480	C.3	1	RES1	0.000	
21	 C12	13.288	55.100	88.874	C.3	1	RES1	0.000	
22	 C13	14.483	54.737	89.729	C.3	1	RES1	0.000	
23	 C14	13.884	54.508	91.126	C.3	1	RES1	0.000	
24	 C15	11.510	53.918	91.848	C.2	1	RES1	0.000	
25	 C16	11.953	53.885	93.329	C.3	1	RES1	0.000	
26	 C17	11.097	55.783	94.715	C.2	1	RES1	0.000	
27	 C18	9.844	56.331	95.382	C.3	1	RES1	0.000	
28	 C47	12.248	52.443	93.867	C.3	1	RES1	0.000	
29	 C48	12.589	52.512	95.370	C.3	1	RES1	0.000	
30	 C49	13.453	51.848	93.148	C.3	1	RES1	0.000	
31	 C50	11.056	51.482	93.679	C.3	1	RES1	0.000	
32	 C51	11.669	50.321	85.052	C.2	1	RES1	0.000	
33	 C52	12.415	50.190	83.877	C.2	1	RES1	0.000	
34	 C53	15.678	51.096	80.459	C.2	1	RES1	0.000	
@<TRIPOS>BOND
1 1 4 1
2 2 17 1
3 2 19 1
4 3 19 2
5 4 8 ar
6 4 15 ar
7 7 8 ar
8 7 34 ar
9 8 11 1
10 11 13 ar
11 11 33 ar
12 13 14 ar
13 14 16 ar
14 16 17 1
15 17 18 1
16 19 20 1
17 5 20 1
18 20 21 1
19 21 22 1
20 6 22 1
21 22 23 1
22 5 23 1
23 5 24 1
24 10 24 2
25 24 25 1
26 9 25 1
27 25 28 1
28 9 26 1
29 12 26 2
30 26 27 1
31 28 29 1
32 28 30 1
33 28 31 1
34 16 32 ar
35 32 33 ar
36 15 34 ar
@<TRIPOS>SUBSTRUCTURE
1	RES1	1	GROUP	1 ****	RES
