# created with PyMOL 2.5.2
@<TRIPOS>MOLECULE
BRD4_6H0G_E3ligase
20 22 1                 
SMALL
USER_CHARGES
@<TRIPOS>ATOM
1	  N5	1.968	54.454	-85.599	N.pl3	1	RES1	0.000	
2	  N6	1.726	51.769	-82.144	N.2	1	RES1	0.000	
3	  O6	2.825	53.739	-82.858	O.2	1	RES1	0.000	
4	  N7	1.986	50.087	-78.835	N.pl3	1	RES1	0.000	
5	  O7	3.678	49.706	-77.382	O.2	1	RES1	0.000	
6	  O8	0.192	50.447	-80.192	O.2	1	RES1	0.000	
7	  O9	0.429	49.829	-82.247	O.2	1	RES1	0.000	
8	 C25	1.331	53.189	-85.455	C.2	1	RES1	0.000	
9	 C26	0.511	52.696	-86.458	C.2	1	RES1	0.000	
10	 C27	-0.209	51.482	-86.283	C.2	1	RES1	0.000	
11	 C28	-0.129	50.806	-85.073	C.2	1	RES1	0.000	
12	 C29	0.681	51.337	-84.088	C.2	1	RES1	0.000	
13	 C30	1.365	52.489	-84.251	C.2	1	RES1	0.000	
14	 C31	2.073	52.769	-83.003	C.2	1	RES1	0.000	
15	 C32	2.264	51.630	-80.732	C.3	1	RES1	0.000	
16	 C33	3.737	51.228	-80.667	C.3	1	RES1	0.000	
17	 C34	4.135	51.181	-79.227	C.3	1	RES1	0.000	
18	 C35	3.278	50.237	-78.407	C.2	1	RES1	0.000	
19	 C36	1.375	50.663	-79.941	C.2	1	RES1	0.000	
20	 C37	0.909	50.853	-82.721	C.2	1	RES1	0.000	
@<TRIPOS>BOND
1 1 8 1
2 8 9 ar
3 8 13 ar
4 9 10 ar
5 10 11 ar
6 11 12 ar
7 12 13 ar
8 12 20 ar
9 13 14 ar
10 2 14 ar
11 3 14 2
12 2 15 1
13 15 16 1
14 15 19 1
15 16 17 1
16 17 18 1
17 4 18 1
18 5 18 2
19 4 19 1
20 6 19 2
21 2 20 ar
22 7 20 2
@<TRIPOS>SUBSTRUCTURE
1	RES1	1	GROUP	1 ****	RES
