# created with PyMOL 2.5.2
@<TRIPOS>MOLECULE
ER_5NVV_E3ligase
35 37 1                 
SMALL
USER_CHARGES
@<TRIPOS>ATOM
1	  C1	12.925	50.019	80.758	C.3	1	RES1	0.000	
2	  N1	11.270	52.790	87.992	N.pl3	1	RES1	0.000	
3	  O1	12.857	51.869	89.351	O.2	1	RES1	0.000	
4	  C2	14.103	50.782	81.213	C.2	1	RES1	0.000	
5	  N2	12.821	54.172	90.975	N.pl3	1	RES1	0.000	
6	  O2	15.758	55.566	89.532	O.3	1	RES1	0.000	
7	  S2	15.830	52.155	82.497	S.2	1	RES1	0.000	
8	  C3	14.293	51.393	82.452	C.2	1	RES1	0.000	
9	  N3	11.438	54.593	94.277	N.pl3	1	RES1	0.000	
10	  O3	10.692	53.786	91.791	O.2	1	RES1	0.000	
11	  C4	13.441	51.448	83.636	C.2	1	RES1	0.000	
12	  O4	12.724	56.469	94.704	O.2	1	RES1	0.000	
13	  C5	12.792	50.283	84.111	C.2	1	RES1	0.000	
14	  O5	10.752	57.690	96.196	O.3	1	RES1	0.000	
15	  C6	12.007	50.328	85.261	C.2	1	RES1	0.000	
16	  N6	15.140	50.985	80.298	N.2	1	RES1	0.000	
17	  C7	11.837	51.485	85.998	C.2	1	RES1	0.000	
18	  C8	10.982	51.560	87.252	C.3	1	RES1	0.000	
19	  C9	9.482	51.490	86.931	C.3	1	RES1	0.000	
20	 C10	12.218	52.832	88.990	C.2	1	RES1	0.000	
21	 C11	12.416	54.236	89.581	C.3	1	RES1	0.000	
22	 C12	13.521	54.980	88.884	C.3	1	RES1	0.000	
23	 C13	14.750	54.595	89.691	C.3	1	RES1	0.000	
24	 C14	14.212	54.506	91.107	C.3	1	RES1	0.000	
25	 C15	11.897	53.952	92.008	C.2	1	RES1	0.000	
26	 C16	12.417	53.881	93.439	C.3	1	RES1	0.000	
27	 C17	11.688	55.837	94.813	C.2	1	RES1	0.000	
28	 C18	10.483	56.413	95.575	C.3	1	RES1	0.000	
29	 C43	12.715	52.442	93.987	C.3	1	RES1	0.000	
30	 C44	11.419	51.685	94.235	C.3	1	RES1	0.000	
31	 C45	13.452	52.544	95.335	C.3	1	RES1	0.000	
32	 C46	13.597	51.628	93.026	C.3	1	RES1	0.000	
33	 C47	12.494	52.648	85.562	C.2	1	RES1	0.000	
34	 C48	13.303	52.616	84.405	C.2	1	RES1	0.000	
35	 C49	16.106	51.679	80.864	C.2	1	RES1	0.000	
@<TRIPOS>BOND
1 1 4 1
2 2 18 1
3 2 20 1
4 3 20 2
5 4 8 ar
6 4 16 ar
7 7 8 ar
8 7 35 ar
9 8 11 1
10 11 13 ar
11 11 34 ar
12 13 15 ar
13 15 17 ar
14 17 18 1
15 18 19 1
16 20 21 1
17 5 21 1
18 21 22 1
19 22 23 1
20 6 23 1
21 23 24 1
22 5 24 1
23 5 25 1
24 10 25 2
25 25 26 1
26 9 26 1
27 26 29 1
28 9 27 1
29 12 27 2
30 27 28 1
31 14 28 1
32 29 30 1
33 29 31 1
34 29 32 1
35 17 33 ar
36 33 34 ar
37 16 35 ar
@<TRIPOS>SUBSTRUCTURE
1	RES1	1	GROUP	1 ****	RES
