# created with PyMOL 2.5.2
@<TRIPOS>MOLECULE
ER_5NVV_E3ligase
35 37 1                 
SMALL
USER_CHARGES
@<TRIPOS>ATOM
1	  C1	12.775	49.959	80.778	C.3	1	RES1	0.000	
2	  N1	11.374	52.942	87.967	N.pl3	1	RES1	0.000	
3	  O1	12.883	51.972	89.364	O.2	1	RES1	0.000	
4	  C2	14.019	50.683	81.178	C.2	1	RES1	0.000	
5	  N2	12.826	54.212	91.029	N.pl3	1	RES1	0.000	
6	  O2	15.696	55.899	89.725	O.3	1	RES1	0.000	
7	  S2	15.898	51.933	82.363	S.2	1	RES1	0.000	
8	  C3	14.287	51.293	82.416	C.2	1	RES1	0.000	
9	  N3	11.445	54.521	94.318	N.pl3	1	RES1	0.000	
10	  O3	10.742	53.690	91.794	O.2	1	RES1	0.000	
11	  C4	13.471	51.405	83.609	C.2	1	RES1	0.000	
12	  O4	12.632	56.425	94.687	O.2	1	RES1	0.000	
13	  C5	12.763	50.303	84.093	C.2	1	RES1	0.000	
14	  O5	10.666	57.577	96.225	O.3	1	RES1	0.000	
15	  C6	12.014	50.389	85.253	C.2	1	RES1	0.000	
16	  N6	15.049	50.780	80.251	N.2	1	RES1	0.000	
17	  C7	11.906	51.602	85.982	C.2	1	RES1	0.000	
18	  C8	11.047	51.745	87.225	C.3	1	RES1	0.000	
19	  C9	9.539	51.738	86.862	C.3	1	RES1	0.000	
20	 C10	12.288	52.968	88.984	C.2	1	RES1	0.000	
21	 C11	12.429	54.356	89.656	C.3	1	RES1	0.000	
22	 C12	13.518	55.211	88.982	C.3	1	RES1	0.000	
23	 C13	14.754	54.825	89.789	C.3	1	RES1	0.000	
24	 C14	14.216	54.610	91.211	C.3	1	RES1	0.000	
25	 C15	11.906	53.925	92.042	C.2	1	RES1	0.000	
26	 C16	12.454	53.861	93.484	C.3	1	RES1	0.000	
27	 C17	11.626	55.774	94.857	C.2	1	RES1	0.000	
28	 C18	10.441	56.285	95.617	C.3	1	RES1	0.000	
29	 C45	12.745	52.371	93.959	C.3	1	RES1	0.000	
30	 C46	11.381	51.653	94.159	C.3	1	RES1	0.000	
31	 C47	13.447	52.395	95.333	C.3	1	RES1	0.000	
32	 C48	13.593	51.571	92.967	C.3	1	RES1	0.000	
33	 C49	12.606	52.714	85.480	C.2	1	RES1	0.000	
34	 C50	13.384	52.608	84.321	C.2	1	RES1	0.000	
35	 C51	16.068	51.402	80.720	C.2	1	RES1	0.000	
@<TRIPOS>BOND
1 1 4 1
2 2 18 1
3 2 20 1
4 3 20 2
5 4 8 ar
6 4 16 ar
7 7 8 ar
8 7 35 ar
9 8 11 1
10 11 13 ar
11 11 34 ar
12 13 15 ar
13 15 17 ar
14 17 18 1
15 18 19 1
16 20 21 1
17 5 21 1
18 21 22 1
19 22 23 1
20 6 23 1
21 23 24 1
22 5 24 1
23 5 25 1
24 10 25 2
25 25 26 1
26 9 26 1
27 26 29 1
28 9 27 1
29 12 27 2
30 27 28 1
31 14 28 1
32 29 30 1
33 29 31 1
34 29 32 1
35 17 33 ar
36 33 34 ar
37 16 35 ar
@<TRIPOS>SUBSTRUCTURE
1	RES1	1	GROUP	1 ****	RES
