# created with PyMOL 2.5.2
@<TRIPOS>MOLECULE
ER_5NVV_E3ligase
35 37 1                 
SMALL
USER_CHARGES
@<TRIPOS>ATOM
1	  C1	12.683	49.924	80.727	C.3	1	RES1	0.000	
2	  N1	11.570	53.134	87.903	N.pl3	1	RES1	0.000	
3	  O1	12.846	51.912	89.326	O.2	1	RES1	0.000	
4	  C2	13.981	50.556	81.155	C.2	1	RES1	0.000	
5	  N2	13.112	54.125	91.055	N.pl3	1	RES1	0.000	
6	  O2	14.344	56.822	90.499	O.3	1	RES1	0.000	
7	  S2	15.917	51.661	82.342	S.2	1	RES1	0.000	
8	  C3	14.293	51.152	82.379	C.2	1	RES1	0.000	
9	  N3	11.401	54.465	94.205	N.pl3	1	RES1	0.000	
10	  O3	10.917	53.666	91.610	O.2	1	RES1	0.000	
11	  C4	13.455	51.371	83.565	C.2	1	RES1	0.000	
12	  O4	12.583	56.383	94.730	O.2	1	RES1	0.000	
13	  C5	13.487	52.583	84.295	C.2	1	RES1	0.000	
14	  O5	10.500	57.461	96.151	O.3	1	RES1	0.000	
15	  C6	12.737	52.780	85.414	C.2	1	RES1	0.000	
16	  N6	14.989	50.532	80.250	N.2	1	RES1	0.000	
17	  C7	11.887	51.769	85.882	C.2	1	RES1	0.000	
18	  C8	11.044	52.013	87.120	C.3	1	RES1	0.000	
19	  C9	9.571	52.203	86.803	C.3	1	RES1	0.000	
20	 C10	12.430	52.998	88.938	C.2	1	RES1	0.000	
21	 C11	12.830	54.332	89.614	C.3	1	RES1	0.000	
22	 C12	14.120	54.911	89.039	C.3	1	RES1	0.000	
23	 C13	14.844	55.513	90.225	C.3	1	RES1	0.000	
24	 C14	14.469	54.575	91.369	C.3	1	RES1	0.000	
25	 C15	12.065	53.864	91.989	C.2	1	RES1	0.000	
26	 C16	12.474	53.775	93.461	C.3	1	RES1	0.000	
27	 C17	11.550	55.713	94.791	C.2	1	RES1	0.000	
28	 C18	10.324	56.195	95.491	C.3	1	RES1	0.000	
29	 C47	12.679	52.305	93.932	C.3	1	RES1	0.000	
30	 C48	11.389	51.480	93.906	C.3	1	RES1	0.000	
31	 C49	13.169	52.289	95.388	C.3	1	RES1	0.000	
32	 C50	13.736	51.588	93.066	C.3	1	RES1	0.000	
33	 C51	11.836	50.571	85.194	C.2	1	RES1	0.000	
34	 C52	12.619	50.360	84.050	C.2	1	RES1	0.000	
35	 C53	16.069	51.086	80.764	C.2	1	RES1	0.000	
@<TRIPOS>BOND
1 1 4 1
2 2 18 1
3 2 20 1
4 3 20 2
5 4 8 ar
6 4 16 ar
7 7 8 ar
8 7 35 ar
9 8 11 1
10 11 13 ar
11 11 34 ar
12 13 15 ar
13 15 17 ar
14 17 18 1
15 18 19 1
16 20 21 1
17 5 21 1
18 21 22 1
19 22 23 1
20 6 23 1
21 23 24 1
22 5 24 1
23 5 25 1
24 10 25 2
25 25 26 1
26 9 26 1
27 26 29 1
28 9 27 1
29 12 27 2
30 27 28 1
31 14 28 1
32 29 30 1
33 29 31 1
34 29 32 1
35 17 33 ar
36 33 34 ar
37 16 35 ar
@<TRIPOS>SUBSTRUCTURE
1	RES1	1	GROUP	1 ****	RES
