# created with PyMOL 2.5.2
@<TRIPOS>MOLECULE
ER_5NVV_E3ligase
35 37 1                 
SMALL
USER_CHARGES
@<TRIPOS>ATOM
1	  C1	12.612	49.901	80.771	C.3	1	RES1	0.000	
2	  N1	11.587	53.150	87.929	N.pl3	1	RES1	0.000	
3	  O1	12.920	51.942	89.389	O.2	1	RES1	0.000	
4	  C2	13.934	50.513	81.137	C.2	1	RES1	0.000	
5	  N2	13.136	54.144	91.072	N.pl3	1	RES1	0.000	
6	  O2	14.337	56.849	90.531	O.3	1	RES1	0.000	
7	  S2	15.925	51.612	82.257	S.2	1	RES1	0.000	
8	  C3	14.284	51.110	82.339	C.2	1	RES1	0.000	
9	  N3	11.360	54.449	94.199	N.pl3	1	RES1	0.000	
10	  O3	10.928	53.694	91.601	O.2	1	RES1	0.000	
11	  C4	13.495	51.353	83.546	C.2	1	RES1	0.000	
12	  O4	12.565	56.315	94.808	O.2	1	RES1	0.000	
13	  C5	12.619	50.398	84.055	C.2	1	RES1	0.000	
14	  O5	10.456	57.434	96.129	O.3	1	RES1	0.000	
15	  C6	11.845	50.614	85.185	C.2	1	RES1	0.000	
16	  N6	14.930	50.473	80.179	N.2	1	RES1	0.000	
17	  C7	11.912	51.848	85.875	C.2	1	RES1	0.000	
18	  C8	11.095	52.050	87.121	C.3	1	RES1	0.000	
19	  C9	9.574	52.119	86.893	C.3	1	RES1	0.000	
20	 C10	12.491	53.037	88.978	C.2	1	RES1	0.000	
21	 C11	12.817	54.366	89.659	C.3	1	RES1	0.000	
22	 C12	14.140	54.947	89.078	C.3	1	RES1	0.000	
23	 C13	14.863	55.525	90.260	C.3	1	RES1	0.000	
24	 C14	14.443	54.571	91.388	C.3	1	RES1	0.000	
25	 C15	12.074	53.881	91.981	C.2	1	RES1	0.000	
26	 C16	12.438	53.753	93.482	C.3	1	RES1	0.000	
27	 C17	11.504	55.676	94.808	C.2	1	RES1	0.000	
28	 C18	10.230	56.191	95.455	C.3	1	RES1	0.000	
29	 C49	12.674	52.300	93.966	C.3	1	RES1	0.000	
30	 C50	11.405	51.414	93.889	C.3	1	RES1	0.000	
31	 C51	13.178	52.331	95.398	C.3	1	RES1	0.000	
32	 C52	13.769	51.628	93.081	C.3	1	RES1	0.000	
33	 C53	12.805	52.812	85.364	C.2	1	RES1	0.000	
34	 C54	13.560	52.563	84.225	C.2	1	RES1	0.000	
35	 C55	16.021	51.009	80.674	C.2	1	RES1	0.000	
@<TRIPOS>BOND
1 1 4 1
2 2 18 1
3 2 20 1
4 3 20 2
5 4 8 ar
6 4 16 ar
7 7 8 ar
8 7 35 ar
9 8 11 1
10 11 13 ar
11 11 34 ar
12 13 15 ar
13 15 17 ar
14 17 18 1
15 18 19 1
16 20 21 1
17 5 21 1
18 21 22 1
19 22 23 1
20 6 23 1
21 23 24 1
22 5 24 1
23 5 25 1
24 10 25 2
25 25 26 1
26 9 26 1
27 26 29 1
28 9 27 1
29 12 27 2
30 27 28 1
31 14 28 1
32 29 30 1
33 29 31 1
34 29 32 1
35 17 33 ar
36 33 34 ar
37 16 35 ar
@<TRIPOS>SUBSTRUCTURE
1	RES1	1	GROUP	1 ****	RES
