# created with PyMOL 2.5.2
@<TRIPOS>MOLECULE
ER_5NVV_E3ligase
35 37 1                 
SMALL
USER_CHARGES
@<TRIPOS>ATOM
1	  C1	12.696	49.909	80.668	C.3	1	RES1	0.000	
2	  N1	11.594	53.237	87.766	N.pl3	1	RES1	0.000	
3	  O1	12.759	51.946	89.260	O.2	1	RES1	0.000	
4	  C2	14.015	50.458	81.053	C.2	1	RES1	0.000	
5	  N2	12.926	54.134	91.094	N.pl3	1	RES1	0.000	
6	  O2	14.304	56.747	90.623	O.3	1	RES1	0.000	
7	  S2	15.997	51.582	82.170	S.2	1	RES1	0.000	
8	  C3	14.363	51.087	82.237	C.2	1	RES1	0.000	
9	  N3	11.386	54.459	94.330	N.pl3	1	RES1	0.000	
10	  O3	10.816	53.684	91.815	O.2	1	RES1	0.000	
11	  C4	13.565	51.365	83.451	C.2	1	RES1	0.000	
12	  O4	12.468	56.437	94.773	O.2	1	RES1	0.000	
13	  C5	13.641	52.586	84.113	C.2	1	RES1	0.000	
14	  O5	10.397	57.426	96.273	O.3	1	RES1	0.000	
15	  C6	12.839	52.849	85.235	C.2	1	RES1	0.000	
16	  N6	15.026	50.374	80.140	N.2	1	RES1	0.000	
17	  C7	11.955	51.887	85.752	C.2	1	RES1	0.000	
18	  C8	11.105	52.126	86.959	C.3	1	RES1	0.000	
19	  C9	9.639	52.375	86.516	C.3	1	RES1	0.000	
20	 C10	12.410	53.049	88.868	C.2	1	RES1	0.000	
21	 C11	12.741	54.331	89.658	C.3	1	RES1	0.000	
22	 C12	14.071	54.870	89.137	C.3	1	RES1	0.000	
23	 C13	14.744	55.438	90.380	C.3	1	RES1	0.000	
24	 C14	14.280	54.509	91.473	C.3	1	RES1	0.000	
25	 C15	11.956	53.854	92.088	C.2	1	RES1	0.000	
26	 C16	12.444	53.805	93.559	C.3	1	RES1	0.000	
27	 C17	11.484	55.725	94.887	C.2	1	RES1	0.000	
28	 C18	10.256	56.144	95.664	C.3	1	RES1	0.000	
29	 C51	12.746	52.349	94.057	C.3	1	RES1	0.000	
30	 C52	11.507	51.442	94.032	C.3	1	RES1	0.000	
31	 C53	13.298	52.407	95.517	C.3	1	RES1	0.000	
32	 C54	13.833	51.693	93.187	C.3	1	RES1	0.000	
33	 C55	11.919	50.644	85.081	C.2	1	RES1	0.000	
34	 C56	12.681	50.406	83.945	C.2	1	RES1	0.000	
35	 C57	16.134	50.921	80.603	C.2	1	RES1	0.000	
@<TRIPOS>BOND
1 1 4 1
2 2 18 1
3 2 20 1
4 3 20 2
5 4 8 ar
6 4 16 ar
7 7 8 ar
8 7 35 ar
9 8 11 1
10 11 13 ar
11 11 34 ar
12 13 15 ar
13 15 17 ar
14 17 18 1
15 18 19 1
16 20 21 1
17 5 21 1
18 21 22 1
19 22 23 1
20 6 23 1
21 23 24 1
22 5 24 1
23 5 25 1
24 10 25 2
25 25 26 1
26 9 26 1
27 26 29 1
28 9 27 1
29 12 27 2
30 27 28 1
31 14 28 1
32 29 30 1
33 29 31 1
34 29 32 1
35 17 33 ar
36 33 34 ar
37 16 35 ar
@<TRIPOS>SUBSTRUCTURE
1	RES1	1	GROUP	1 ****	RES
