# created with PyMOL 2.5.2
@<TRIPOS>MOLECULE
ER_5NVV_E3ligase
35 37 1                 
SMALL
USER_CHARGES
@<TRIPOS>ATOM
1	  C1	12.657	49.871	80.847	C.3	1	RES1	0.000	
2	  N1	11.495	53.221	87.899	N.pl3	1	RES1	0.000	
3	  O1	12.837	51.940	89.282	O.2	1	RES1	0.000	
4	  C2	13.950	50.517	81.209	C.2	1	RES1	0.000	
5	  N2	13.156	54.162	91.051	N.pl3	1	RES1	0.000	
6	  O2	14.430	56.829	90.294	O.3	1	RES1	0.000	
7	  S2	15.880	51.667	82.370	S.2	1	RES1	0.000	
8	  C3	14.245	51.106	82.428	C.2	1	RES1	0.000	
9	  N3	11.438	54.431	94.206	N.pl3	1	RES1	0.000	
10	  O3	10.984	53.661	91.579	O.2	1	RES1	0.000	
11	  C4	13.472	51.330	83.637	C.2	1	RES1	0.000	
12	  O4	12.602	56.345	94.760	O.2	1	RES1	0.000	
13	  C5	13.505	52.578	84.313	C.2	1	RES1	0.000	
14	  O5	10.490	57.412	96.130	O.3	1	RES1	0.000	
15	  C6	12.725	52.823	85.409	C.2	1	RES1	0.000	
16	  N6	14.941	50.533	80.259	N.2	1	RES1	0.000	
17	  C7	11.838	51.877	85.909	C.2	1	RES1	0.000	
18	  C8	10.978	52.105	87.142	C.3	1	RES1	0.000	
19	  C9	9.496	52.306	86.759	C.3	1	RES1	0.000	
20	 C10	12.400	53.010	88.964	C.2	1	RES1	0.000	
21	 C11	12.808	54.336	89.623	C.3	1	RES1	0.000	
22	 C12	14.124	54.819	88.994	C.3	1	RES1	0.000	
23	 C13	14.891	55.465	90.135	C.3	1	RES1	0.000	
24	 C14	14.481	54.638	91.334	C.3	1	RES1	0.000	
25	 C15	12.123	53.855	91.974	C.2	1	RES1	0.000	
26	 C16	12.517	53.768	93.467	C.3	1	RES1	0.000	
27	 C17	11.595	55.667	94.780	C.2	1	RES1	0.000	
28	 C18	10.350	56.177	95.477	C.3	1	RES1	0.000	
29	 C53	12.750	52.271	93.932	C.3	1	RES1	0.000	
30	 C54	11.382	51.544	93.945	C.3	1	RES1	0.000	
31	 C55	13.276	52.231	95.355	C.3	1	RES1	0.000	
32	 C56	13.713	51.518	92.977	C.3	1	RES1	0.000	
33	 C57	11.775	50.654	85.246	C.2	1	RES1	0.000	
34	 C58	12.537	50.384	84.114	C.2	1	RES1	0.000	
35	 C59	16.009	51.114	80.773	C.2	1	RES1	0.000	
@<TRIPOS>BOND
1 1 4 1
2 2 18 1
3 2 20 1
4 3 20 2
5 4 8 ar
6 4 16 ar
7 7 8 ar
8 7 35 ar
9 8 11 1
10 11 13 ar
11 11 34 ar
12 13 15 ar
13 15 17 ar
14 17 18 1
15 18 19 1
16 20 21 1
17 5 21 1
18 21 22 1
19 22 23 1
20 6 23 1
21 23 24 1
22 5 24 1
23 5 25 1
24 10 25 2
25 25 26 1
26 9 26 1
27 26 29 1
28 9 27 1
29 12 27 2
30 27 28 1
31 14 28 1
32 29 30 1
33 29 31 1
34 29 32 1
35 17 33 ar
36 33 34 ar
37 16 35 ar
@<TRIPOS>SUBSTRUCTURE
1	RES1	1	GROUP	1 ****	RES
