# created with PyMOL 2.5.2
@<TRIPOS>MOLECULE
ER_4W9H_E3ligase
34 36 1                 
SMALL
USER_CHARGES
@<TRIPOS>ATOM
1	  C1	12.381	50.001	80.447	C.3	1	RES1	0.000	
2	  N1	10.978	52.851	87.718	N.pl3	1	RES1	0.000	
3	  O1	12.462	51.863	89.190	O.2	1	RES1	0.000	
4	  C2	13.659	50.593	80.925	C.2	1	RES1	0.000	
5	  N2	12.367	54.179	90.827	N.pl3	1	RES1	0.000	
6	  O2	15.504	55.382	89.645	O.3	1	RES1	0.000	
7	  S2	15.524	51.740	82.196	S.2	1	RES1	0.000	
8	  C3	13.908	51.165	82.169	C.2	1	RES1	0.000	
9	  N3	11.020	54.637	94.135	N.pl3	1	RES1	0.000	
10	  O3	10.286	53.749	91.675	O.2	1	RES1	0.000	
11	  C4	13.065	51.303	83.349	C.2	1	RES1	0.000	
12	  O4	12.297	56.463	94.644	O.2	1	RES1	0.000	
13	  C5	12.943	52.515	84.047	C.2	1	RES1	0.000	
14	  N5	14.715	50.583	80.033	N.2	1	RES1	0.000	
15	  C6	12.214	52.653	85.200	C.2	1	RES1	0.000	
16	  C7	11.501	51.525	85.715	C.2	1	RES1	0.000	
17	  C8	10.669	51.610	86.992	C.3	1	RES1	0.000	
18	  C9	9.161	51.567	86.691	C.3	1	RES1	0.000	
19	 C10	11.869	52.861	88.785	C.2	1	RES1	0.000	
20	 C11	12.057	54.245	89.380	C.3	1	RES1	0.000	
21	 C12	13.288	54.921	88.775	C.3	1	RES1	0.000	
22	 C13	14.427	54.451	89.694	C.3	1	RES1	0.000	
23	 C14	13.774	54.401	91.065	C.3	1	RES1	0.000	
24	 C15	11.485	53.944	91.875	C.2	1	RES1	0.000	
25	 C16	12.030	53.920	93.328	C.3	1	RES1	0.000	
26	 C17	11.242	55.853	94.730	C.2	1	RES1	0.000	
27	 C18	10.066	56.381	95.451	C.3	1	RES1	0.000	
28	 C51	12.355	52.510	93.877	C.3	1	RES1	0.000	
29	 C52	11.143	51.589	93.904	C.3	1	RES1	0.000	
30	 C53	12.947	52.624	95.283	C.3	1	RES1	0.000	
31	 C54	13.405	51.842	93.002	C.3	1	RES1	0.000	
32	 C55	11.633	50.314	85.068	C.2	1	RES1	0.000	
33	 C56	12.398	50.187	83.906	C.2	1	RES1	0.000	
34	 C57	15.761	51.159	80.617	C.2	1	RES1	0.000	
@<TRIPOS>BOND
1 1 4 1
2 2 17 1
3 2 19 1
4 3 19 2
5 4 8 ar
6 4 14 ar
7 7 8 ar
8 7 34 ar
9 8 11 1
10 11 13 ar
11 11 33 ar
12 13 15 ar
13 14 34 ar
14 15 16 ar
15 16 17 1
16 17 18 1
17 19 20 1
18 5 20 1
19 20 21 1
20 21 22 1
21 6 22 1
22 22 23 1
23 5 23 1
24 5 24 1
25 10 24 2
26 24 25 1
27 9 25 1
28 25 28 1
29 9 26 1
30 12 26 2
31 26 27 1
32 28 29 1
33 28 30 1
34 28 31 1
35 16 32 ar
36 32 33 ar
@<TRIPOS>SUBSTRUCTURE
1	RES1	1	GROUP	1 ****	RES
