# created with PyMOL 2.5.2
@<TRIPOS>MOLECULE
ER_4W9H_E3ligase
34 36 1                 
SMALL
USER_CHARGES
@<TRIPOS>ATOM
1	  C1	12.351	49.970	80.475	C.3	1	RES1	0.000	
2	  N1	10.985	52.828	87.744	N.pl3	1	RES1	0.000	
3	  O1	12.458	51.789	89.164	O.2	1	RES1	0.000	
4	  C2	13.618	50.579	80.922	C.2	1	RES1	0.000	
5	  N2	12.529	54.132	90.852	N.pl3	1	RES1	0.000	
6	  O2	15.428	55.665	89.468	O.3	1	RES1	0.000	
7	  S2	15.504	51.729	82.180	S.2	1	RES1	0.000	
8	  C3	13.887	51.142	82.185	C.2	1	RES1	0.000	
9	  N3	11.085	54.614	94.132	N.pl3	1	RES1	0.000	
10	  O3	10.406	53.694	91.630	O.2	1	RES1	0.000	
11	  C4	13.038	51.288	83.374	C.2	1	RES1	0.000	
12	  O4	12.438	56.426	94.672	O.2	1	RES1	0.000	
13	  C5	12.261	50.220	83.840	C.2	1	RES1	0.000	
14	  N5	14.653	50.605	80.047	N.2	1	RES1	0.000	
15	  C6	11.462	50.356	84.989	C.2	1	RES1	0.000	
16	  C7	11.449	51.568	85.692	C.2	1	RES1	0.000	
17	  C8	10.615	51.640	86.984	C.3	1	RES1	0.000	
18	  C9	9.118	51.546	86.777	C.3	1	RES1	0.000	
19	 C10	11.905	52.809	88.791	C.2	1	RES1	0.000	
20	 C11	12.106	54.171	89.462	C.3	1	RES1	0.000	
21	 C12	13.220	54.927	88.752	C.3	1	RES1	0.000	
22	 C13	14.449	54.627	89.604	C.3	1	RES1	0.000	
23	 C14	13.889	54.576	91.022	C.3	1	RES1	0.000	
24	 C15	11.585	53.904	91.887	C.2	1	RES1	0.000	
25	 C16	12.103	53.863	93.359	C.3	1	RES1	0.000	
26	 C17	11.372	55.852	94.696	C.2	1	RES1	0.000	
27	 C18	10.166	56.471	95.371	C.3	1	RES1	0.000	
28	 C52	12.333	52.449	93.922	C.3	1	RES1	0.000	
29	 C53	10.959	51.734	94.108	C.3	1	RES1	0.000	
30	 C54	12.963	52.535	95.324	C.3	1	RES1	0.000	
31	 C55	13.214	51.582	93.060	C.3	1	RES1	0.000	
32	 C56	12.232	52.606	85.243	C.2	1	RES1	0.000	
33	 C57	13.007	52.488	84.099	C.2	1	RES1	0.000	
34	 C58	15.701	51.172	80.582	C.2	1	RES1	0.000	
@<TRIPOS>BOND
1 1 4 1
2 2 17 1
3 2 19 1
4 3 19 2
5 4 8 ar
6 4 14 ar
7 7 8 ar
8 7 34 ar
9 8 11 1
10 11 13 ar
11 11 33 ar
12 13 15 ar
13 14 34 ar
14 15 16 ar
15 16 17 1
16 17 18 1
17 19 20 1
18 5 20 1
19 20 21 1
20 21 22 1
21 6 22 1
22 22 23 1
23 5 23 1
24 5 24 1
25 10 24 2
26 24 25 1
27 9 25 1
28 25 28 1
29 9 26 1
30 12 26 2
31 26 27 1
32 28 29 1
33 28 30 1
34 28 31 1
35 16 32 ar
36 32 33 ar
@<TRIPOS>SUBSTRUCTURE
1	RES1	1	GROUP	1 ****	RES
