# created with PyMOL 2.5.2
@<TRIPOS>MOLECULE
ER_4W9H_E3ligase
34 36 1                 
SMALL
USER_CHARGES
@<TRIPOS>ATOM
1	  C1	12.304	49.895	80.430	C.3	1	RES1	0.000	
2	  N1	11.228	52.979	87.747	N.pl3	1	RES1	0.000	
3	  O1	12.421	51.797	89.307	O.2	1	RES1	0.000	
4	  C2	13.575	50.443	80.898	C.2	1	RES1	0.000	
5	  N2	12.726	54.055	90.876	N.pl3	1	RES1	0.000	
6	  O2	14.230	56.600	90.324	O.3	1	RES1	0.000	
7	  S2	15.547	51.528	82.119	S.2	1	RES1	0.000	
8	  C3	13.867	51.022	82.131	C.2	1	RES1	0.000	
9	  N3	10.938	54.554	93.987	N.pl3	1	RES1	0.000	
10	  O3	10.544	53.724	91.400	O.2	1	RES1	0.000	
11	  C4	13.037	51.244	83.314	C.2	1	RES1	0.000	
12	  O4	12.202	56.343	94.728	O.2	1	RES1	0.000	
13	  C5	12.191	50.267	83.813	C.2	1	RES1	0.000	
14	  N5	14.647	50.400	79.998	N.2	1	RES1	0.000	
15	  C6	11.447	50.472	84.974	C.2	1	RES1	0.000	
16	  C7	11.528	51.676	85.664	C.2	1	RES1	0.000	
17	  C8	10.709	51.866	86.951	C.3	1	RES1	0.000	
18	  C9	9.195	51.942	86.762	C.3	1	RES1	0.000	
19	 C10	12.067	52.863	88.818	C.2	1	RES1	0.000	
20	 C11	12.472	54.207	89.438	C.3	1	RES1	0.000	
21	 C12	13.779	54.739	88.863	C.3	1	RES1	0.000	
22	 C13	14.574	55.242	90.064	C.3	1	RES1	0.000	
23	 C14	14.130	54.322	91.186	C.3	1	RES1	0.000	
24	 C15	11.680	53.870	91.793	C.2	1	RES1	0.000	
25	 C16	12.007	53.833	93.303	C.3	1	RES1	0.000	
26	 C17	11.131	55.715	94.625	C.2	1	RES1	0.000	
27	 C18	9.876	56.316	95.216	C.3	1	RES1	0.000	
28	 C53	12.251	52.381	93.849	C.3	1	RES1	0.000	
29	 C54	12.489	52.367	95.391	C.3	1	RES1	0.000	
30	 C55	13.504	51.796	93.186	C.3	1	RES1	0.000	
31	 C56	11.065	51.469	93.543	C.3	1	RES1	0.000	
32	 C57	12.372	52.655	85.166	C.2	1	RES1	0.000	
33	 C58	13.135	52.460	84.008	C.2	1	RES1	0.000	
34	 C59	15.700	50.912	80.525	C.2	1	RES1	0.000	
@<TRIPOS>BOND
1 1 4 1
2 2 17 1
3 2 19 1
4 3 19 2
5 4 8 ar
6 4 14 ar
7 7 8 ar
8 7 34 ar
9 8 11 1
10 11 13 ar
11 11 33 ar
12 13 15 ar
13 14 34 ar
14 15 16 ar
15 16 17 1
16 17 18 1
17 19 20 1
18 5 20 1
19 20 21 1
20 21 22 1
21 6 22 1
22 22 23 1
23 5 23 1
24 5 24 1
25 10 24 2
26 24 25 1
27 9 25 1
28 25 28 1
29 9 26 1
30 12 26 2
31 26 27 1
32 28 29 1
33 28 30 1
34 28 31 1
35 16 32 ar
36 32 33 ar
@<TRIPOS>SUBSTRUCTURE
1	RES1	1	GROUP	1 ****	RES
