# created with PyMOL 2.5.2
@<TRIPOS>MOLECULE
CRBN_5NVV_E3ligase
34 36 1                 
SMALL
USER_CHARGES
@<TRIPOS>ATOM
1	  C1	12.641	49.884	80.730	C.3	1	RES1	0.000	
2	  N1	11.582	53.241	87.865	N.pl3	1	RES1	0.000	
3	  O1	12.760	51.939	89.352	O.2	1	RES1	0.000	
4	  S1	15.883	51.604	82.336	S.2	1	RES1	0.000	
5	  C2	13.943	50.476	81.155	C.2	1	RES1	0.000	
6	  N2	13.164	54.177	91.079	N.pl3	1	RES1	0.000	
7	  O2	14.311	56.897	90.314	O.3	1	RES1	0.000	
8	  C3	14.228	51.103	82.376	C.2	1	RES1	0.000	
9	  N3	11.418	54.382	94.232	N.pl3	1	RES1	0.000	
10	  O3	11.020	53.621	91.616	O.2	1	RES1	0.000	
11	  C4	13.387	51.386	83.532	C.2	1	RES1	0.000	
12	  O4	12.606	56.280	94.823	O.2	1	RES1	0.000	
13	  C5	12.462	50.432	84.016	C.2	1	RES1	0.000	
14	  O5	10.467	57.409	96.107	O.3	1	RES1	0.000	
15	  C6	11.690	50.694	85.151	C.2	1	RES1	0.000	
16	  C7	11.812	51.940	85.830	C.2	1	RES1	0.000	
17	  C8	11.042	52.164	87.066	C.3	1	RES1	0.000	
18	  N8	14.995	50.365	80.271	N.2	1	RES1	0.000	
19	  C9	12.453	53.046	88.929	C.2	1	RES1	0.000	
20	 C10	12.868	54.329	89.660	C.3	1	RES1	0.000	
21	 C11	14.166	54.846	89.039	C.3	1	RES1	0.000	
22	 C12	14.865	55.568	90.197	C.3	1	RES1	0.000	
23	 C13	14.480	54.718	91.391	C.3	1	RES1	0.000	
24	 C14	12.174	53.836	91.985	C.2	1	RES1	0.000	
25	 C15	12.540	53.743	93.503	C.3	1	RES1	0.000	
26	 C16	11.565	55.640	94.815	C.2	1	RES1	0.000	
27	 C17	10.298	56.145	95.445	C.3	1	RES1	0.000	
28	 C39	12.767	52.279	94.008	C.3	1	RES1	0.000	
29	 C40	11.409	51.539	94.033	C.3	1	RES1	0.000	
30	 C41	13.311	52.311	95.467	C.3	1	RES1	0.000	
31	 C42	13.731	51.466	93.151	C.3	1	RES1	0.000	
32	 C43	12.744	52.868	85.341	C.2	1	RES1	0.000	
33	 C44	13.496	52.585	84.211	C.2	1	RES1	0.000	
34	 C45	16.073	50.949	80.786	C.2	1	RES1	0.000	
@<TRIPOS>BOND
1 1 5 1
2 2 17 1
3 2 19 1
4 3 19 2
5 4 8 ar
6 4 34 ar
7 5 8 ar
8 5 18 ar
9 8 11 1
10 11 13 ar
11 11 33 ar
12 13 15 ar
13 15 16 ar
14 16 17 1
15 6 20 1
16 19 20 1
17 20 21 1
18 21 22 1
19 7 22 1
20 22 23 1
21 6 23 1
22 6 24 1
23 10 24 2
24 24 25 1
25 9 25 1
26 25 28 1
27 9 26 1
28 12 26 2
29 26 27 1
30 14 27 1
31 28 29 1
32 28 30 1
33 28 31 1
34 16 32 ar
35 32 33 ar
36 18 34 ar
@<TRIPOS>SUBSTRUCTURE
1	RES1	1	GROUP	1 ****	RES
