# created with PyMOL 2.5.2
@<TRIPOS>MOLECULE
BRD4_7BQU_E3ligase
19 21 1                 
SMALL
USER_CHARGES
@<TRIPOS>ATOM
1	  O4	27.358	17.200	11.973	O.2	1	RES1	0.000	
2	  O5	26.358	20.316	17.903	O.2	1	RES1	0.000	
3	  N6	25.432	17.690	13.155	N.2	1	RES1	0.000	
4	  O6	23.752	19.599	14.252	O.2	1	RES1	0.000	
5	  N7	25.082	19.892	16.072	N.pl3	1	RES1	0.000	
6	  O7	23.100	17.701	13.653	O.2	1	RES1	0.000	
7	 C19	25.550	15.496	10.240	C.2	1	RES1	0.000	
8	 C20	24.472	14.839	9.643	C.2	1	RES1	0.000	
9	 C21	23.183	14.997	10.156	C.2	1	RES1	0.000	
10	 C22	22.921	15.792	11.281	C.2	1	RES1	0.000	
11	 C23	24.037	16.443	11.849	C.2	1	RES1	0.000	
12	 C24	25.288	16.296	11.340	C.2	1	RES1	0.000	
13	 C25	26.180	17.123	12.170	C.2	1	RES1	0.000	
14	 C26	25.933	18.616	14.155	C.3	1	RES1	0.000	
15	 C27	26.848	17.958	15.178	C.3	1	RES1	0.000	
16	 C28	27.367	19.019	16.162	C.3	1	RES1	0.000	
17	 C29	26.239	19.791	16.821	C.2	1	RES1	0.000	
18	 C30	24.806	19.374	14.814	C.2	1	RES1	0.000	
19	 C31	24.088	17.311	13.022	C.2	1	RES1	0.000	
@<TRIPOS>BOND
1 7 8 ar
2 7 12 ar
3 8 9 ar
4 9 10 ar
5 10 11 ar
6 11 12 ar
7 11 19 ar
8 12 13 ar
9 1 13 2
10 3 13 ar
11 3 14 1
12 14 15 1
13 14 18 1
14 15 16 1
15 16 17 1
16 2 17 2
17 5 17 1
18 4 18 2
19 5 18 1
20 3 19 ar
21 6 19 2
@<TRIPOS>SUBSTRUCTURE
1	RES1	1	GROUP	1 ****	RES
