# created with PyMOL 2.5.2
@<TRIPOS>MOLECULE
CRBN_5NVV_E3ligase
34 36 1                 
SMALL
USER_CHARGES
@<TRIPOS>ATOM
1	  C1	12.732	49.923	80.688	C.3	1	RES1	0.000	
2	  N1	11.569	53.226	87.763	N.pl3	1	RES1	0.000	
3	  O1	12.689	51.939	89.255	O.2	1	RES1	0.000	
4	  S1	15.999	51.639	82.247	S.2	1	RES1	0.000	
5	  C2	14.020	50.504	81.099	C.2	1	RES1	0.000	
6	  N2	12.977	54.130	91.081	N.pl3	1	RES1	0.000	
7	  O2	14.346	56.697	90.550	O.3	1	RES1	0.000	
8	  C3	14.343	51.127	82.302	C.2	1	RES1	0.000	
9	  N3	11.379	54.450	94.286	N.pl3	1	RES1	0.000	
10	  O3	10.870	53.629	91.766	O.2	1	RES1	0.000	
11	  C4	13.542	51.367	83.496	C.2	1	RES1	0.000	
12	  O4	12.463	56.437	94.789	O.2	1	RES1	0.000	
13	  C5	13.590	52.613	84.157	C.2	1	RES1	0.000	
14	  O5	10.333	57.425	96.196	O.3	1	RES1	0.000	
15	  C6	12.779	52.862	85.286	C.2	1	RES1	0.000	
16	  C7	11.900	51.873	85.764	C.2	1	RES1	0.000	
17	  C8	11.056	52.120	86.969	C.3	1	RES1	0.000	
18	  N8	15.065	50.421	80.182	N.2	1	RES1	0.000	
19	  C9	12.392	53.021	88.854	C.2	1	RES1	0.000	
20	 C10	12.767	54.287	89.620	C.3	1	RES1	0.000	
21	 C11	14.097	54.802	89.103	C.3	1	RES1	0.000	
22	 C12	14.802	55.363	90.339	C.3	1	RES1	0.000	
23	 C13	14.331	54.447	91.417	C.3	1	RES1	0.000	
24	 C14	12.030	53.845	92.058	C.2	1	RES1	0.000	
25	 C15	12.458	53.818	93.533	C.3	1	RES1	0.000	
26	 C16	11.462	55.709	94.843	C.2	1	RES1	0.000	
27	 C17	10.210	56.130	95.568	C.3	1	RES1	0.000	
28	 C41	12.777	52.380	94.064	C.3	1	RES1	0.000	
29	 C42	11.543	51.435	94.042	C.3	1	RES1	0.000	
30	 C43	13.269	52.469	95.540	C.3	1	RES1	0.000	
31	 C44	13.910	51.726	93.259	C.3	1	RES1	0.000	
32	 C45	11.853	50.650	85.094	C.2	1	RES1	0.000	
33	 C46	12.664	50.407	83.963	C.2	1	RES1	0.000	
34	 C47	16.141	51.001	80.664	C.2	1	RES1	0.000	
@<TRIPOS>BOND
1 1 5 1
2 2 17 1
3 2 19 1
4 3 19 2
5 4 8 ar
6 4 34 ar
7 5 8 ar
8 5 18 ar
9 8 11 1
10 11 13 ar
11 11 33 ar
12 13 15 ar
13 15 16 ar
14 16 17 1
15 6 20 1
16 19 20 1
17 20 21 1
18 21 22 1
19 7 22 1
20 22 23 1
21 6 23 1
22 6 24 1
23 10 24 2
24 24 25 1
25 9 25 1
26 25 28 1
27 9 26 1
28 12 26 2
29 26 27 1
30 14 27 1
31 28 29 1
32 28 30 1
33 28 31 1
34 16 32 ar
35 32 33 ar
36 18 34 ar
@<TRIPOS>SUBSTRUCTURE
1	RES1	1	GROUP	1 ****	RES
