# created with PyMOL 2.5.2
@<TRIPOS>MOLECULE
CRBN_5NVV_E3ligase
34 36 1                 
SMALL
USER_CHARGES
@<TRIPOS>ATOM
1	  C1	12.780	49.955	80.601	C.3	1	RES1	0.000	
2	  N1	11.545	53.180	87.775	N.pl3	1	RES1	0.000	
3	  O1	12.758	51.946	89.278	O.2	1	RES1	0.000	
4	  S1	15.970	51.673	82.325	S.2	1	RES1	0.000	
5	  C2	14.087	50.519	81.067	C.2	1	RES1	0.000	
6	  N2	12.934	54.141	91.065	N.pl3	1	RES1	0.000	
7	  O2	14.450	56.689	90.571	O.3	1	RES1	0.000	
8	  C3	14.329	51.128	82.290	C.2	1	RES1	0.000	
9	  N3	11.385	54.466	94.294	N.pl3	1	RES1	0.000	
10	  O3	10.817	53.605	91.755	O.2	1	RES1	0.000	
11	  C4	13.467	51.350	83.467	C.2	1	RES1	0.000	
12	  O4	12.495	56.438	94.744	O.2	1	RES1	0.000	
13	  C5	13.508	52.593	84.143	C.2	1	RES1	0.000	
14	  O5	10.405	57.452	96.222	O.3	1	RES1	0.000	
15	  C6	12.721	52.817	85.288	C.2	1	RES1	0.000	
16	  C7	11.905	51.830	85.780	C.2	1	RES1	0.000	
17	  C8	11.071	52.033	86.995	C.3	1	RES1	0.000	
18	  N8	15.152	50.485	80.208	N.2	1	RES1	0.000	
19	  C9	12.371	53.021	88.855	C.2	1	RES1	0.000	
20	 C10	12.724	54.328	89.618	C.3	1	RES1	0.000	
21	 C11	14.047	54.833	89.091	C.3	1	RES1	0.000	
22	 C12	14.806	55.334	90.316	C.3	1	RES1	0.000	
23	 C13	14.331	54.417	91.404	C.3	1	RES1	0.000	
24	 C14	11.976	53.858	92.075	C.2	1	RES1	0.000	
25	 C15	12.463	53.811	93.540	C.3	1	RES1	0.000	
26	 C16	11.496	55.739	94.837	C.2	1	RES1	0.000	
27	 C17	10.263	56.161	95.614	C.3	1	RES1	0.000	
28	 C43	12.767	52.394	94.056	C.3	1	RES1	0.000	
29	 C44	11.541	51.472	94.049	C.3	1	RES1	0.000	
30	 C45	13.293	52.461	95.488	C.3	1	RES1	0.000	
31	 C46	13.859	51.721	93.203	C.3	1	RES1	0.000	
32	 C47	11.830	50.601	85.103	C.2	1	RES1	0.000	
33	 C48	12.621	50.371	83.973	C.2	1	RES1	0.000	
34	 C49	16.187	51.047	80.741	C.2	1	RES1	0.000	
@<TRIPOS>BOND
1 1 5 1
2 2 17 1
3 2 19 1
4 3 19 2
5 4 8 ar
6 4 34 ar
7 5 8 ar
8 5 18 ar
9 8 11 1
10 11 13 ar
11 11 33 ar
12 13 15 ar
13 15 16 ar
14 16 17 1
15 6 20 1
16 19 20 1
17 20 21 1
18 21 22 1
19 7 22 1
20 22 23 1
21 6 23 1
22 6 24 1
23 10 24 2
24 24 25 1
25 9 25 1
26 25 28 1
27 9 26 1
28 12 26 2
29 26 27 1
30 14 27 1
31 28 29 1
32 28 30 1
33 28 31 1
34 16 32 ar
35 32 33 ar
36 18 34 ar
@<TRIPOS>SUBSTRUCTURE
1	RES1	1	GROUP	1 ****	RES
