# created with PyMOL 2.5.2
@<TRIPOS>MOLECULE
CRBN_5NVV_E3ligase
34 36 1                 
SMALL
USER_CHARGES
@<TRIPOS>ATOM
1	  C1	12.718	49.908	80.623	C.3	1	RES1	0.000	
2	  N1	11.603	53.180	87.806	N.pl3	1	RES1	0.000	
3	  O1	12.911	51.989	89.233	O.2	1	RES1	0.000	
4	  S1	15.952	51.651	82.221	S.2	1	RES1	0.000	
5	  C2	14.020	50.476	81.059	C.2	1	RES1	0.000	
6	  N2	12.993	54.140	91.091	N.pl3	1	RES1	0.000	
7	  O2	14.292	56.804	90.611	O.3	1	RES1	0.000	
8	  C3	14.328	51.098	82.258	C.2	1	RES1	0.000	
9	  N3	11.365	54.457	94.302	N.pl3	1	RES1	0.000	
10	  O3	10.851	53.766	91.747	O.2	1	RES1	0.000	
11	  C4	13.487	51.345	83.450	C.2	1	RES1	0.000	
12	  O4	12.518	56.410	94.817	O.2	1	RES1	0.000	
13	  C5	12.632	50.348	83.955	C.2	1	RES1	0.000	
14	  O5	10.414	57.459	96.249	O.3	1	RES1	0.000	
15	  C6	11.901	50.584	85.111	C.2	1	RES1	0.000	
16	  C7	11.967	51.814	85.785	C.2	1	RES1	0.000	
17	  C8	11.152	52.059	87.032	C.3	1	RES1	0.000	
18	  N8	15.065	50.396	80.144	N.2	1	RES1	0.000	
19	  C9	12.446	53.073	88.867	C.2	1	RES1	0.000	
20	 C10	12.741	54.355	89.654	C.3	1	RES1	0.000	
21	 C11	14.073	54.927	89.142	C.3	1	RES1	0.000	
22	 C12	14.766	55.484	90.346	C.3	1	RES1	0.000	
23	 C13	14.301	54.524	91.458	C.3	1	RES1	0.000	
24	 C14	12.026	53.868	92.080	C.2	1	RES1	0.000	
25	 C15	12.461	53.787	93.548	C.3	1	RES1	0.000	
26	 C16	11.493	55.714	94.866	C.2	1	RES1	0.000	
27	 C17	10.265	56.164	95.609	C.3	1	RES1	0.000	
28	 C45	12.698	52.330	94.034	C.3	1	RES1	0.000	
29	 C46	11.417	51.447	93.956	C.3	1	RES1	0.000	
30	 C47	13.176	52.333	95.509	C.3	1	RES1	0.000	
31	 C48	13.790	51.624	93.204	C.3	1	RES1	0.000	
32	 C49	12.807	52.792	85.280	C.2	1	RES1	0.000	
33	 C50	13.587	52.573	84.119	C.2	1	RES1	0.000	
34	 C51	16.138	50.986	80.660	C.2	1	RES1	0.000	
@<TRIPOS>BOND
1 1 5 1
2 2 17 1
3 2 19 1
4 3 19 2
5 4 8 ar
6 4 34 ar
7 5 8 ar
8 5 18 ar
9 8 11 1
10 11 13 ar
11 11 33 ar
12 13 15 ar
13 15 16 ar
14 16 17 1
15 6 20 1
16 19 20 1
17 20 21 1
18 21 22 1
19 7 22 1
20 22 23 1
21 6 23 1
22 6 24 1
23 10 24 2
24 24 25 1
25 9 25 1
26 25 28 1
27 9 26 1
28 12 26 2
29 26 27 1
30 14 27 1
31 28 29 1
32 28 30 1
33 28 31 1
34 16 32 ar
35 32 33 ar
36 18 34 ar
@<TRIPOS>SUBSTRUCTURE
1	RES1	1	GROUP	1 ****	RES
