# created with PyMOL 2.5.2
@<TRIPOS>MOLECULE
CRBN_5NVV_E3ligase
34 36 1                 
SMALL
USER_CHARGES
@<TRIPOS>ATOM
1	  C1	12.841	49.996	80.762	C.3	1	RES1	0.000	
2	  N1	11.311	52.867	87.982	N.pl3	1	RES1	0.000	
3	  O1	12.912	51.950	89.389	O.2	1	RES1	0.000	
4	  S1	15.827	52.049	82.402	S.2	1	RES1	0.000	
5	  C2	14.043	50.702	81.175	C.2	1	RES1	0.000	
6	  N2	12.827	54.185	91.001	N.pl3	1	RES1	0.000	
7	  O2	15.780	55.746	89.680	O.3	1	RES1	0.000	
8	  C3	14.267	51.344	82.405	C.2	1	RES1	0.000	
9	  N3	11.434	54.582	94.294	N.pl3	1	RES1	0.000	
10	  O3	10.722	53.743	91.762	O.2	1	RES1	0.000	
11	  C4	13.445	51.432	83.607	C.2	1	RES1	0.000	
12	  O4	12.678	56.444	94.775	O.2	1	RES1	0.000	
13	  C5	12.801	50.284	84.123	C.2	1	RES1	0.000	
14	  O5	10.648	57.570	96.246	O.3	1	RES1	0.000	
15	  C6	12.031	50.350	85.285	C.2	1	RES1	0.000	
16	  C7	11.898	51.566	85.985	C.2	1	RES1	0.000	
17	  C8	11.037	51.647	87.237	C.3	1	RES1	0.000	
18	  N8	15.081	50.800	80.271	N.2	1	RES1	0.000	
19	  C9	12.254	52.921	89.003	C.2	1	RES1	0.000	
20	 C10	12.413	54.312	89.610	C.3	1	RES1	0.000	
21	 C11	13.529	55.125	88.937	C.3	1	RES1	0.000	
22	 C12	14.773	54.735	89.743	C.3	1	RES1	0.000	
23	 C13	14.236	54.585	91.157	C.3	1	RES1	0.000	
24	 C14	11.911	53.956	92.008	C.2	1	RES1	0.000	
25	 C15	12.429	53.857	93.470	C.3	1	RES1	0.000	
26	 C16	11.635	55.808	94.852	C.2	1	RES1	0.000	
27	 C17	10.434	56.325	95.618	C.3	1	RES1	0.000	
28	 C51	12.723	52.429	93.959	C.3	1	RES1	0.000	
29	 C52	11.413	51.641	94.121	C.3	1	RES1	0.000	
30	 C53	13.406	52.461	95.337	C.3	1	RES1	0.000	
31	 C54	13.624	51.637	92.974	C.3	1	RES1	0.000	
32	 C55	12.571	52.708	85.508	C.2	1	RES1	0.000	
33	 C56	13.339	52.633	84.349	C.2	1	RES1	0.000	
34	 C57	16.078	51.476	80.801	C.2	1	RES1	0.000	
@<TRIPOS>BOND
1 1 5 1
2 2 17 1
3 2 19 1
4 3 19 2
5 4 8 ar
6 4 34 ar
7 5 8 ar
8 5 18 ar
9 8 11 1
10 11 13 ar
11 11 33 ar
12 13 15 ar
13 15 16 ar
14 16 17 1
15 6 20 1
16 19 20 1
17 20 21 1
18 21 22 1
19 7 22 1
20 22 23 1
21 6 23 1
22 6 24 1
23 10 24 2
24 24 25 1
25 9 25 1
26 25 28 1
27 9 26 1
28 12 26 2
29 26 27 1
30 14 27 1
31 28 29 1
32 28 30 1
33 28 31 1
34 16 32 ar
35 32 33 ar
36 18 34 ar
@<TRIPOS>SUBSTRUCTURE
1	RES1	1	GROUP	1 ****	RES
