# created with PyMOL 2.5.2
@<TRIPOS>MOLECULE
CRBN_5NVV_E3ligase
34 36 1                 
SMALL
USER_CHARGES
@<TRIPOS>ATOM
1	  C1	12.662	49.889	80.763	C.3	1	RES1	0.000	
2	  N1	11.522	53.225	87.858	N.pl3	1	RES1	0.000	
3	  O1	12.773	51.953	89.328	O.2	1	RES1	0.000	
4	  S1	15.901	51.617	82.387	S.2	1	RES1	0.000	
5	  C2	13.947	50.487	81.189	C.2	1	RES1	0.000	
6	  N2	13.164	54.150	91.095	N.pl3	1	RES1	0.000	
7	  O2	14.375	56.845	90.284	O.3	1	RES1	0.000	
8	  C3	14.241	51.140	82.397	C.2	1	RES1	0.000	
9	  N3	11.446	54.411	94.216	N.pl3	1	RES1	0.000	
10	  O3	11.010	53.623	91.636	O.2	1	RES1	0.000	
11	  C4	13.412	51.379	83.547	C.2	1	RES1	0.000	
12	  O4	12.621	56.316	94.823	O.2	1	RES1	0.000	
13	  C5	13.431	52.638	84.199	C.2	1	RES1	0.000	
14	  O5	10.462	57.418	96.099	O.3	1	RES1	0.000	
15	  C6	12.651	52.875	85.333	C.2	1	RES1	0.000	
16	  C7	11.806	51.907	85.837	C.2	1	RES1	0.000	
17	  C8	11.003	52.118	87.097	C.3	1	RES1	0.000	
18	  N8	15.008	50.437	80.298	N.2	1	RES1	0.000	
19	  C9	12.411	53.043	88.908	C.2	1	RES1	0.000	
20	 C10	12.836	54.327	89.633	C.3	1	RES1	0.000	
21	 C11	14.143	54.821	89.027	C.3	1	RES1	0.000	
22	 C12	14.862	55.514	90.151	C.3	1	RES1	0.000	
23	 C13	14.503	54.645	91.361	C.3	1	RES1	0.000	
24	 C14	12.155	53.845	92.002	C.2	1	RES1	0.000	
25	 C15	12.532	53.745	93.492	C.3	1	RES1	0.000	
26	 C16	11.593	55.668	94.809	C.2	1	RES1	0.000	
27	 C17	10.315	56.184	95.442	C.3	1	RES1	0.000	
28	 C41	12.773	52.270	93.993	C.3	1	RES1	0.000	
29	 C42	11.409	51.518	93.988	C.3	1	RES1	0.000	
30	 C43	13.299	52.286	95.418	C.3	1	RES1	0.000	
31	 C44	13.738	51.489	93.103	C.3	1	RES1	0.000	
32	 C45	11.743	50.666	85.195	C.2	1	RES1	0.000	
33	 C46	12.528	50.408	84.074	C.2	1	RES1	0.000	
34	 C47	16.072	50.992	80.815	C.2	1	RES1	0.000	
@<TRIPOS>BOND
1 1 5 1
2 2 17 1
3 2 19 1
4 3 19 2
5 4 8 ar
6 4 34 ar
7 5 8 ar
8 5 18 ar
9 8 11 1
10 11 13 ar
11 11 33 ar
12 13 15 ar
13 15 16 ar
14 16 17 1
15 6 20 1
16 19 20 1
17 20 21 1
18 21 22 1
19 7 22 1
20 22 23 1
21 6 23 1
22 6 24 1
23 10 24 2
24 24 25 1
25 9 25 1
26 25 28 1
27 9 26 1
28 12 26 2
29 26 27 1
30 14 27 1
31 28 29 1
32 28 30 1
33 28 31 1
34 16 32 ar
35 32 33 ar
36 18 34 ar
@<TRIPOS>SUBSTRUCTURE
1	RES1	1	GROUP	1 ****	RES
