# created with PyMOL 2.5.2
@<TRIPOS>MOLECULE
CRBN_5NVV_E3ligase
34 36 1                 
SMALL
USER_CHARGES
@<TRIPOS>ATOM
1	  C1	12.868	49.957	80.574	C.3	1	RES1	0.000	
2	  N1	11.515	53.108	87.806	N.pl3	1	RES1	0.000	
3	  O1	12.747	51.887	89.266	O.2	1	RES1	0.000	
4	  S1	15.960	51.784	82.370	S.2	1	RES1	0.000	
5	  C2	14.106	50.549	81.082	C.2	1	RES1	0.000	
6	  N2	12.936	54.092	91.050	N.pl3	1	RES1	0.000	
7	  O2	14.390	56.661	90.502	O.3	1	RES1	0.000	
8	  C3	14.318	51.188	82.287	C.2	1	RES1	0.000	
9	  N3	11.415	54.505	94.303	N.pl3	1	RES1	0.000	
10	  O3	10.817	53.686	91.786	O.2	1	RES1	0.000	
11	  C4	13.438	51.400	83.432	C.2	1	RES1	0.000	
12	  O4	12.542	56.462	94.737	O.2	1	RES1	0.000	
13	  C5	12.598	50.406	83.923	C.2	1	RES1	0.000	
14	  O5	10.458	57.495	96.201	O.3	1	RES1	0.000	
15	  C6	11.799	50.601	85.069	C.2	1	RES1	0.000	
16	  C7	11.845	51.762	85.771	C.2	1	RES1	0.000	
17	  C8	11.038	51.975	87.026	C.3	1	RES1	0.000	
18	  N8	15.195	50.505	80.240	N.2	1	RES1	0.000	
19	  C9	12.365	52.941	88.877	C.2	1	RES1	0.000	
20	 C10	12.703	54.234	89.621	C.3	1	RES1	0.000	
21	 C11	14.048	54.767	89.027	C.3	1	RES1	0.000	
22	 C12	14.787	55.309	90.268	C.3	1	RES1	0.000	
23	 C13	14.298	54.426	91.382	C.3	1	RES1	0.000	
24	 C14	11.993	53.850	92.055	C.2	1	RES1	0.000	
25	 C15	12.466	53.837	93.534	C.3	1	RES1	0.000	
26	 C16	11.552	55.754	94.823	C.2	1	RES1	0.000	
27	 C17	10.303	56.200	95.597	C.3	1	RES1	0.000	
28	 C47	12.771	52.381	94.067	C.3	1	RES1	0.000	
29	 C48	11.512	51.486	94.053	C.3	1	RES1	0.000	
30	 C49	13.246	52.488	95.529	C.3	1	RES1	0.000	
31	 C50	13.860	51.702	93.240	C.3	1	RES1	0.000	
32	 C51	12.731	52.783	85.317	C.2	1	RES1	0.000	
33	 C52	13.492	52.592	84.182	C.2	1	RES1	0.000	
34	 C53	16.242	51.102	80.842	C.2	1	RES1	0.000	
@<TRIPOS>BOND
1 1 5 1
2 2 17 1
3 2 19 1
4 3 19 2
5 4 8 ar
6 4 34 ar
7 5 8 ar
8 5 18 ar
9 8 11 1
10 11 13 ar
11 11 33 ar
12 13 15 ar
13 15 16 ar
14 16 17 1
15 6 20 1
16 19 20 1
17 20 21 1
18 21 22 1
19 7 22 1
20 22 23 1
21 6 23 1
22 6 24 1
23 10 24 2
24 24 25 1
25 9 25 1
26 25 28 1
27 9 26 1
28 12 26 2
29 26 27 1
30 14 27 1
31 28 29 1
32 28 30 1
33 28 31 1
34 16 32 ar
35 32 33 ar
36 18 34 ar
@<TRIPOS>SUBSTRUCTURE
1	RES1	1	GROUP	1 ****	RES
