# created with PyMOL 2.5.2
@<TRIPOS>MOLECULE
CRBN_5NVX_E3ligase
36 39 1                 
SMALL
USER_CHARGES
@<TRIPOS>ATOM
1	  C1	12.608	50.008	80.916	C.3	1	RES1	0.000	
2	  N1	11.482	53.300	87.984	N.pl3	1	RES1	0.000	
3	  O1	12.726	51.992	89.417	O.2	1	RES1	0.000	
4	  S1	15.850	51.741	82.476	S.2	1	RES1	0.000	
5	  C2	13.875	50.597	81.328	C.2	1	RES1	0.000	
6	  N2	13.134	54.212	91.130	N.pl3	1	RES1	0.000	
7	  O2	14.331	56.908	90.325	O.3	1	RES1	0.000	
8	  C3	14.211	51.224	82.523	C.2	1	RES1	0.000	
9	  N3	11.416	54.442	94.273	N.pl3	1	RES1	0.000	
10	  O3	10.956	53.727	91.685	O.2	1	RES1	0.000	
11	  C4	13.392	51.482	83.712	C.2	1	RES1	0.000	
12	  O4	12.585	56.308	94.974	O.2	1	RES1	0.000	
13	  C5	12.500	50.506	84.183	C.2	1	RES1	0.000	
14	  C6	11.692	50.750	85.296	C.2	1	RES1	0.000	
15	  C7	11.758	51.940	85.976	C.2	1	RES1	0.000	
16	  C8	10.938	52.160	87.211	C.3	1	RES1	0.000	
17	  N8	14.925	50.515	80.410	N.2	1	RES1	0.000	
18	  C9	12.368	53.105	88.995	C.2	1	RES1	0.000	
19	 C10	12.815	54.391	89.713	C.3	1	RES1	0.000	
20	 C11	14.099	54.884	89.072	C.3	1	RES1	0.000	
21	 C12	14.817	55.561	90.187	C.3	1	RES1	0.000	
22	 C13	14.446	54.726	91.420	C.3	1	RES1	0.000	
23	 C14	12.116	53.922	92.042	C.2	1	RES1	0.000	
24	 C15	12.499	53.787	93.532	C.3	1	RES1	0.000	
25	 C16	11.526	55.654	94.905	C.2	1	RES1	0.000	
26	 C17	10.293	56.153	95.569	C.3	1	RES1	0.000	
27	 C18	9.996	57.647	95.598	C.3	1	RES1	0.000	
28	 C19	10.327	56.884	96.885	C.3	1	RES1	0.000	
29	 C20	12.782	52.327	94.039	C.3	1	RES1	0.000	
30	 C21	11.481	51.527	94.109	C.3	1	RES1	0.000	
31	 C22	13.371	52.378	95.455	C.3	1	RES1	0.000	
32	 C23	13.784	51.593	93.100	C.3	1	RES1	0.000	
33	 C24	12.646	52.941	85.505	C.2	1	RES1	0.000	
34	 C48	13.429	52.706	84.377	C.2	1	RES1	0.000	
35	 C49	15.992	51.068	80.914	C.2	1	RES1	0.000	
36	  F1	9.162	55.376	95.374	 F	1	RES1	0.000	
@<TRIPOS>BOND
1 1 5 1
2 2 16 1
3 2 18 1
4 3 18 2
5 4 8 ar
6 4 35 ar
7 5 8 ar
8 5 17 ar
9 8 11 1
10 11 13 ar
11 11 34 ar
12 13 14 ar
13 14 15 ar
14 15 16 1
15 6 19 1
16 18 19 1
17 19 20 1
18 20 21 1
19 7 21 1
20 21 22 1
21 6 22 1
22 6 23 1
23 10 23 2
24 23 24 1
25 9 24 1
26 24 29 1
27 9 25 1
28 12 25 2
29 25 26 1
30 26 27 1
31 26 28 1
32 27 28 1
33 29 30 1
34 29 31 1
35 29 32 1
36 15 33 ar
37 33 34 ar
38 17 35 ar
39 26 36 1
@<TRIPOS>SUBSTRUCTURE
1	RES1	1	GROUP	1 ****	RES
