# created with PyMOL 2.5.2
@<TRIPOS>MOLECULE
CRBN_5NVX_E3ligase
36 39 1                 
SMALL
USER_CHARGES
@<TRIPOS>ATOM
1	  C1	12.864	50.051	80.827	C.3	1	RES1	0.000	
2	  N1	11.264	53.004	88.008	N.pl3	1	RES1	0.000	
3	  O1	12.844	52.003	89.330	O.2	1	RES1	0.000	
4	  S1	15.825	52.055	82.596	S.2	1	RES1	0.000	
5	  C2	14.057	50.755	81.302	C.2	1	RES1	0.000	
6	  N2	12.828	54.274	91.103	N.pl3	1	RES1	0.000	
7	  O2	15.767	55.846	89.736	O.3	1	RES1	0.000	
8	  C3	14.249	51.360	82.507	C.2	1	RES1	0.000	
9	  N3	11.391	54.538	94.392	N.pl3	1	RES1	0.000	
10	  O3	10.740	53.811	91.858	O.2	1	RES1	0.000	
11	  C4	13.355	51.488	83.676	C.2	1	RES1	0.000	
12	  O4	12.539	56.467	94.935	O.2	1	RES1	0.000	
13	  C5	13.238	52.705	84.374	C.2	1	RES1	0.000	
14	  C6	12.451	52.829	85.506	C.2	1	RES1	0.000	
15	  C7	11.710	51.725	85.989	C.2	1	RES1	0.000	
16	  C8	10.907	51.825	87.240	C.3	1	RES1	0.000	
17	  N8	15.135	50.810	80.436	N.2	1	RES1	0.000	
18	  C9	12.225	53.019	88.975	C.2	1	RES1	0.000	
19	 C10	12.427	54.359	89.679	C.3	1	RES1	0.000	
20	 C11	13.537	55.164	89.019	C.3	1	RES1	0.000	
21	 C12	14.754	54.817	89.842	C.3	1	RES1	0.000	
22	 C13	14.224	54.717	91.266	C.3	1	RES1	0.000	
23	 C14	11.919	53.976	92.120	C.2	1	RES1	0.000	
24	 C15	12.423	53.911	93.545	C.3	1	RES1	0.000	
25	 C16	11.513	55.775	94.986	C.2	1	RES1	0.000	
26	 C17	10.326	56.238	95.710	C.3	1	RES1	0.000	
27	 C18	10.445	57.013	96.992	C.3	1	RES1	0.000	
28	 C19	9.962	57.717	95.765	C.3	1	RES1	0.000	
29	 C20	12.814	52.470	94.053	C.3	1	RES1	0.000	
30	 C21	11.553	51.648	94.222	C.3	1	RES1	0.000	
31	 C22	13.521	52.583	95.404	C.3	1	RES1	0.000	
32	 C23	13.739	51.756	93.080	C.3	1	RES1	0.000	
33	 C24	11.824	50.515	85.295	C.2	1	RES1	0.000	
34	 C52	12.605	50.380	84.163	C.2	1	RES1	0.000	
35	 C53	16.128	51.463	81.005	C.2	1	RES1	0.000	
36	  F1	9.222	55.368	95.663	 F	1	RES1	0.000	
@<TRIPOS>BOND
1 1 5 1
2 2 16 1
3 2 18 1
4 3 18 2
5 4 8 ar
6 4 35 ar
7 5 8 ar
8 5 17 ar
9 8 11 1
10 11 13 ar
11 11 34 ar
12 13 14 ar
13 14 15 ar
14 15 16 1
15 6 19 1
16 18 19 1
17 19 20 1
18 20 21 1
19 7 21 1
20 21 22 1
21 6 22 1
22 6 23 1
23 10 23 2
24 23 24 1
25 9 24 1
26 24 29 1
27 9 25 1
28 12 25 2
29 25 26 1
30 26 27 1
31 26 28 1
32 27 28 1
33 29 30 1
34 29 31 1
35 29 32 1
36 15 33 ar
37 33 34 ar
38 17 35 ar
39 26 36 1
@<TRIPOS>SUBSTRUCTURE
1	RES1	1	GROUP	1 ****	RES
