# created with PyMOL 2.5.2
@<TRIPOS>MOLECULE
CRBN_5NVX_E3ligase
36 39 1                 
SMALL
USER_CHARGES
@<TRIPOS>ATOM
1	  C1	12.832	50.041	80.834	C.3	1	RES1	0.000	
2	  N1	11.251	52.935	88.012	N.pl3	1	RES1	0.000	
3	  O1	12.872	51.972	89.334	O.2	1	RES1	0.000	
4	  S1	15.851	52.073	82.531	S.2	1	RES1	0.000	
5	  C2	14.035	50.819	81.273	C.2	1	RES1	0.000	
6	  N2	12.810	54.253	91.107	N.pl3	1	RES1	0.000	
7	  O2	15.700	55.852	89.719	O.3	1	RES1	0.000	
8	  C3	14.252	51.394	82.536	C.2	1	RES1	0.000	
9	  N3	11.406	54.526	94.386	N.pl3	1	RES1	0.000	
10	  O3	10.727	53.807	91.879	O.2	1	RES1	0.000	
11	  C4	13.397	51.487	83.713	C.2	1	RES1	0.000	
12	  O4	12.562	56.492	94.845	O.2	1	RES1	0.000	
13	  C5	12.664	50.402	84.132	C.2	1	RES1	0.000	
14	  C6	11.863	50.462	85.293	C.2	1	RES1	0.000	
15	  C7	11.775	51.668	86.030	C.2	1	RES1	0.000	
16	  C8	10.934	51.745	87.252	C.3	1	RES1	0.000	
17	  N8	15.088	50.921	80.377	N.2	1	RES1	0.000	
18	  C9	12.221	52.956	89.000	C.2	1	RES1	0.000	
19	 C10	12.403	54.327	89.706	C.3	1	RES1	0.000	
20	 C11	13.501	55.130	89.016	C.3	1	RES1	0.000	
21	 C12	14.729	54.821	89.834	C.3	1	RES1	0.000	
22	 C13	14.183	54.706	91.226	C.3	1	RES1	0.000	
23	 C14	11.906	53.960	92.123	C.2	1	RES1	0.000	
24	 C15	12.456	53.911	93.567	C.3	1	RES1	0.000	
25	 C16	11.559	55.802	94.956	C.2	1	RES1	0.000	
26	 C17	10.347	56.280	95.667	C.3	1	RES1	0.000	
27	 C18	9.994	57.749	95.731	C.3	1	RES1	0.000	
28	 C19	10.529	57.103	96.949	C.3	1	RES1	0.000	
29	 C20	12.767	52.480	94.057	C.3	1	RES1	0.000	
30	 C21	11.442	51.696	94.294	C.3	1	RES1	0.000	
31	 C22	13.498	52.544	95.422	C.3	1	RES1	0.000	
32	 C23	13.630	51.626	93.098	C.3	1	RES1	0.000	
33	 C24	12.527	52.776	85.595	C.2	1	RES1	0.000	
34	 C45	13.300	52.700	84.463	C.2	1	RES1	0.000	
35	 C46	16.064	51.582	80.943	C.2	1	RES1	0.000	
36	  F1	9.256	55.440	95.699	 F	1	RES1	0.000	
@<TRIPOS>BOND
1 1 5 1
2 2 16 1
3 2 18 1
4 3 18 2
5 4 8 ar
6 4 35 ar
7 5 8 ar
8 5 17 ar
9 8 11 1
10 11 13 ar
11 11 34 ar
12 13 14 ar
13 14 15 ar
14 15 16 1
15 6 19 1
16 18 19 1
17 19 20 1
18 20 21 1
19 7 21 1
20 21 22 1
21 6 22 1
22 6 23 1
23 10 23 2
24 23 24 1
25 9 24 1
26 24 29 1
27 9 25 1
28 12 25 2
29 25 26 1
30 26 27 1
31 26 28 1
32 27 28 1
33 29 30 1
34 29 31 1
35 29 32 1
36 15 33 ar
37 33 34 ar
38 17 35 ar
39 26 36 1
@<TRIPOS>SUBSTRUCTURE
1	RES1	1	GROUP	1 ****	RES
