# created with PyMOL 2.5.2
@<TRIPOS>MOLECULE
CRBN_5NVX_E3ligase
35 38 1                 
SMALL
USER_CHARGES
@<TRIPOS>ATOM
1	  C1	12.580	49.953	80.835	C.3	1	RES1	0.000	
2	  N1	11.574	53.342	87.934	N.pl3	1	RES1	0.000	
3	  O1	12.817	52.032	89.354	O.2	1	RES1	0.000	
4	  C2	13.917	50.515	81.264	C.2	1	RES1	0.000	
5	  N2	13.155	54.245	91.165	N.pl3	1	RES1	0.000	
6	  O2	14.412	56.946	90.547	O.3	1	RES1	0.000	
7	  S2	15.854	51.667	82.383	S.2	1	RES1	0.000	
8	  C3	14.202	51.194	82.435	C.2	1	RES1	0.000	
9	  N3	11.359	54.442	94.300	N.pl3	1	RES1	0.000	
10	  O3	11.010	53.697	91.674	O.2	1	RES1	0.000	
11	  C4	13.367	51.490	83.589	C.2	1	RES1	0.000	
12	  O4	12.460	56.367	94.954	O.2	1	RES1	0.000	
13	  C5	13.414	52.715	84.231	C.2	1	RES1	0.000	
14	  C6	12.655	52.973	85.373	C.2	1	RES1	0.000	
15	  C7	11.793	52.014	85.894	C.2	1	RES1	0.000	
16	  C8	11.028	52.246	87.144	C.3	1	RES1	0.000	
17	  N8	14.965	50.364	80.365	N.2	1	RES1	0.000	
18	  C9	12.480	53.153	88.973	C.2	1	RES1	0.000	
19	 C10	12.867	54.427	89.715	C.3	1	RES1	0.000	
20	 C11	14.155	54.987	89.134	C.3	1	RES1	0.000	
21	 C12	14.879	55.623	90.304	C.3	1	RES1	0.000	
22	 C13	14.499	54.697	91.488	C.3	1	RES1	0.000	
23	 C14	12.124	53.927	92.059	C.2	1	RES1	0.000	
24	 C15	12.461	53.831	93.579	C.3	1	RES1	0.000	
25	 C16	11.449	55.668	94.939	C.2	1	RES1	0.000	
26	 C17	10.191	56.095	95.632	C.3	1	RES1	0.000	
27	 C18	10.242	56.821	96.916	C.3	1	RES1	0.000	
28	 C19	9.812	57.532	95.670	C.3	1	RES1	0.000	
29	 C20	12.729	52.392	94.094	C.3	1	RES1	0.000	
30	 C21	13.840	51.699	93.333	C.3	1	RES1	0.000	
31	 C22	11.448	51.517	94.056	C.3	1	RES1	0.000	
32	 C46	11.745	50.745	85.268	C.2	1	RES1	0.000	
33	 C47	12.502	50.491	84.137	C.2	1	RES1	0.000	
34	 C48	16.041	50.956	80.842	C.2	1	RES1	0.000	
35	  F1	9.127	55.194	95.546	 F	1	RES1	0.000	
@<TRIPOS>BOND
1 1 4 1
2 2 16 1
3 2 18 1
4 3 18 2
5 4 8 ar
6 4 17 ar
7 7 8 ar
8 7 34 ar
9 8 11 1
10 11 13 ar
11 11 33 ar
12 13 14 ar
13 14 15 ar
14 15 16 1
15 5 19 1
16 18 19 1
17 19 20 1
18 20 21 1
19 6 21 1
20 21 22 1
21 5 22 1
22 5 23 1
23 10 23 2
24 23 24 1
25 9 24 1
26 24 29 1
27 9 25 1
28 12 25 2
29 25 26 1
30 26 27 1
31 26 28 1
32 27 28 1
33 29 30 1
34 29 31 1
35 15 32 ar
36 32 33 ar
37 17 34 ar
38 26 35 1
@<TRIPOS>SUBSTRUCTURE
1	RES1	1	GROUP	1 ****	RES
