# created with PyMOL 2.5.2
@<TRIPOS>MOLECULE
BRD4_7BQU_E3ligase
19 21 1                 
SMALL
USER_CHARGES
@<TRIPOS>ATOM
1	  O4	27.390	17.219	11.947	O.2	1	RES1	0.000	
2	  O5	26.361	20.282	17.917	O.2	1	RES1	0.000	
3	  N6	25.413	17.702	13.154	N.2	1	RES1	0.000	
4	  O6	23.749	19.616	14.259	O.2	1	RES1	0.000	
5	  N7	25.068	19.907	16.072	N.pl3	1	RES1	0.000	
6	  O7	23.118	17.674	13.658	O.2	1	RES1	0.000	
7	 C19	25.559	15.493	10.234	C.2	1	RES1	0.000	
8	 C20	24.473	14.841	9.665	C.2	1	RES1	0.000	
9	 C21	23.173	14.975	10.185	C.2	1	RES1	0.000	
10	 C22	22.925	15.773	11.298	C.2	1	RES1	0.000	
11	 C23	24.029	16.451	11.864	C.2	1	RES1	0.000	
12	 C24	25.287	16.307	11.343	C.2	1	RES1	0.000	
13	 C25	26.190	17.114	12.155	C.2	1	RES1	0.000	
14	 C26	25.948	18.620	14.155	C.3	1	RES1	0.000	
15	 C27	26.836	17.969	15.174	C.3	1	RES1	0.000	
16	 C28	27.363	19.002	16.159	C.3	1	RES1	0.000	
17	 C29	26.224	19.758	16.808	C.2	1	RES1	0.000	
18	 C30	24.798	19.386	14.800	C.2	1	RES1	0.000	
19	 C31	24.092	17.366	12.991	C.2	1	RES1	0.000	
@<TRIPOS>BOND
1 7 8 ar
2 7 12 ar
3 8 9 ar
4 9 10 ar
5 10 11 ar
6 11 12 ar
7 11 19 ar
8 12 13 ar
9 1 13 2
10 3 13 ar
11 3 14 1
12 14 15 1
13 14 18 1
14 15 16 1
15 16 17 1
16 2 17 2
17 5 17 1
18 4 18 2
19 5 18 1
20 3 19 ar
21 6 19 2
@<TRIPOS>SUBSTRUCTURE
1	RES1	1	GROUP	1 ****	RES
