# created with PyMOL 2.5.2
@<TRIPOS>MOLECULE
CRBN_5NVX_E3ligase
35 38 1                 
SMALL
USER_CHARGES
@<TRIPOS>ATOM
1	  C1	12.800	50.033	80.822	C.3	1	RES1	0.000	
2	  N1	11.327	52.989	88.017	N.pl3	1	RES1	0.000	
3	  O1	12.961	52.078	89.371	O.2	1	RES1	0.000	
4	  C2	14.001	50.737	81.266	C.2	1	RES1	0.000	
5	  N2	12.827	54.263	91.077	N.pl3	1	RES1	0.000	
6	  O2	15.755	55.907	89.864	O.3	1	RES1	0.000	
7	  S2	15.856	52.010	82.487	S.2	1	RES1	0.000	
8	  C3	14.260	51.364	82.493	C.2	1	RES1	0.000	
9	  N3	11.348	54.544	94.363	N.pl3	1	RES1	0.000	
10	  O3	10.734	53.741	91.789	O.2	1	RES1	0.000	
11	  C4	13.412	51.488	83.691	C.2	1	RES1	0.000	
12	  O4	12.500	56.448	94.960	O.2	1	RES1	0.000	
13	  C5	12.689	50.396	84.158	C.2	1	RES1	0.000	
14	  C6	11.932	50.502	85.335	C.2	1	RES1	0.000	
15	  C7	11.849	51.679	86.022	C.2	1	RES1	0.000	
16	  C8	11.026	51.794	87.289	C.3	1	RES1	0.000	
17	  N8	15.067	50.845	80.350	N.2	1	RES1	0.000	
18	  C9	12.299	53.040	88.997	C.2	1	RES1	0.000	
19	 C10	12.446	54.433	89.678	C.3	1	RES1	0.000	
20	 C11	13.549	55.265	89.059	C.3	1	RES1	0.000	
21	 C12	14.781	54.893	89.872	C.3	1	RES1	0.000	
22	 C13	14.216	54.650	91.268	C.3	1	RES1	0.000	
23	 C14	11.897	53.994	92.078	C.2	1	RES1	0.000	
24	 C15	12.371	53.920	93.545	C.3	1	RES1	0.000	
25	 C16	11.482	55.770	94.966	C.2	1	RES1	0.000	
26	 C17	10.245	56.233	95.713	C.3	1	RES1	0.000	
27	 C18	9.921	57.684	95.754	C.3	1	RES1	0.000	
28	 C19	10.348	57.009	97.014	C.3	1	RES1	0.000	
29	 C20	12.733	52.494	94.020	C.3	1	RES1	0.000	
30	 C21	13.825	51.859	93.145	C.3	1	RES1	0.000	
31	 C22	11.551	51.562	94.153	C.3	1	RES1	0.000	
32	 C50	12.564	52.800	85.568	C.2	1	RES1	0.000	
33	 C51	13.359	52.680	84.413	C.2	1	RES1	0.000	
34	 C52	16.082	51.475	80.895	C.2	1	RES1	0.000	
35	  F1	9.140	55.370	95.622	 F	1	RES1	0.000	
@<TRIPOS>BOND
1 1 4 1
2 2 16 1
3 2 18 1
4 3 18 2
5 4 8 ar
6 4 17 ar
7 7 8 ar
8 7 34 ar
9 8 11 1
10 11 13 ar
11 11 33 ar
12 13 14 ar
13 14 15 ar
14 15 16 1
15 5 19 1
16 18 19 1
17 19 20 1
18 20 21 1
19 6 21 1
20 21 22 1
21 5 22 1
22 5 23 1
23 10 23 2
24 23 24 1
25 9 24 1
26 24 29 1
27 9 25 1
28 12 25 2
29 25 26 1
30 26 27 1
31 26 28 1
32 27 28 1
33 29 30 1
34 29 31 1
35 15 32 ar
36 32 33 ar
37 17 34 ar
38 26 35 1
@<TRIPOS>SUBSTRUCTURE
1	RES1	1	GROUP	1 ****	RES
