# created with PyMOL 2.5.2
@<TRIPOS>MOLECULE
CRBN_5NVX_E3ligase
35 38 1                 
SMALL
USER_CHARGES
@<TRIPOS>ATOM
1	  C1	12.683	49.996	80.791	C.3	1	RES1	0.000	
2	  N1	11.471	53.199	87.831	N.pl3	1	RES1	0.000	
3	  O1	12.780	51.972	89.323	O.2	1	RES1	0.000	
4	  C2	13.983	50.558	81.171	C.2	1	RES1	0.000	
5	  N2	12.903	54.204	91.111	N.pl3	1	RES1	0.000	
6	  O2	14.386	56.734	90.639	O.3	1	RES1	0.000	
7	  S2	15.930	51.752	82.321	S.2	1	RES1	0.000	
8	  C3	14.308	51.191	82.391	C.2	1	RES1	0.000	
9	  N3	11.312	54.566	94.354	N.pl3	1	RES1	0.000	
10	  O3	10.771	53.663	91.783	O.2	1	RES1	0.000	
11	  C4	13.519	51.443	83.593	C.2	1	RES1	0.000	
12	  O4	12.432	56.552	94.803	O.2	1	RES1	0.000	
13	  C5	13.579	52.626	84.296	C.2	1	RES1	0.000	
14	  C6	12.754	52.862	85.414	C.2	1	RES1	0.000	
15	  C7	11.891	51.874	85.875	C.2	1	RES1	0.000	
16	  C8	10.986	52.108	87.074	C.3	1	RES1	0.000	
17	  N8	15.010	50.523	80.265	N.2	1	RES1	0.000	
18	  C9	12.353	53.078	88.930	C.2	1	RES1	0.000	
19	 C10	12.698	54.372	89.654	C.3	1	RES1	0.000	
20	 C11	14.026	54.889	89.144	C.3	1	RES1	0.000	
21	 C12	14.754	55.382	90.370	C.3	1	RES1	0.000	
22	 C13	14.282	54.486	91.474	C.3	1	RES1	0.000	
23	 C14	11.934	53.949	92.090	C.2	1	RES1	0.000	
24	 C15	12.358	53.936	93.575	C.3	1	RES1	0.000	
25	 C16	11.455	55.823	94.936	C.2	1	RES1	0.000	
26	 C17	10.330	56.193	95.827	C.3	1	RES1	0.000	
27	 C18	9.887	57.643	95.967	C.3	1	RES1	0.000	
28	 C19	10.609	56.949	97.110	C.3	1	RES1	0.000	
29	 C20	12.707	52.514	94.006	C.3	1	RES1	0.000	
30	 C21	13.815	51.888	93.131	C.3	1	RES1	0.000	
31	 C22	11.505	51.583	94.007	C.3	1	RES1	0.000	
32	 C43	11.810	50.667	85.179	C.2	1	RES1	0.000	
33	 C44	12.601	50.440	84.037	C.2	1	RES1	0.000	
34	 C45	16.061	51.086	80.736	C.2	1	RES1	0.000	
35	  F1	9.275	55.268	95.940	 F	1	RES1	0.000	
@<TRIPOS>BOND
1 1 4 1
2 2 16 1
3 2 18 1
4 3 18 2
5 4 8 ar
6 4 17 ar
7 7 8 ar
8 7 34 ar
9 8 11 1
10 11 13 ar
11 11 33 ar
12 13 14 ar
13 14 15 ar
14 15 16 1
15 5 19 1
16 18 19 1
17 19 20 1
18 20 21 1
19 6 21 1
20 21 22 1
21 5 22 1
22 5 23 1
23 10 23 2
24 23 24 1
25 9 24 1
26 24 29 1
27 9 25 1
28 12 25 2
29 25 26 1
30 26 27 1
31 26 28 1
32 27 28 1
33 29 30 1
34 29 31 1
35 15 32 ar
36 32 33 ar
37 17 34 ar
38 26 35 1
@<TRIPOS>SUBSTRUCTURE
1	RES1	1	GROUP	1 ****	RES
