# created with PyMOL 2.5.2
@<TRIPOS>MOLECULE
VHL_5NVV_E3ligase
34 36 1                 
SMALL
USER_CHARGES
@<TRIPOS>ATOM
1	  S1	15.942	51.628	82.302	S.2	1	RES1	0.000	
2	  N4	11.362	54.411	94.156	N.pl3	1	RES1	0.000	
3	  N5	13.177	54.152	91.075	N.pl3	1	RES1	0.000	
4	  N6	11.606	53.211	87.883	N.pl3	1	RES1	0.000	
5	  N7	14.964	50.398	80.278	N.2	1	RES1	0.000	
6	  O8	10.320	57.326	96.161	O.3	1	RES1	0.000	
7	  O9	12.471	56.336	94.766	O.2	1	RES1	0.000	
8	 O10	11.000	53.639	91.584	O.2	1	RES1	0.000	
9	 O11	14.424	56.837	90.355	O.3	1	RES1	0.000	
10	 O12	12.706	51.913	89.428	O.2	1	RES1	0.000	
11	 C24	10.140	56.122	95.390	C.3	1	RES1	0.000	
12	 C25	11.443	55.641	94.765	C.2	1	RES1	0.000	
13	 C26	12.477	53.761	93.483	C.3	1	RES1	0.000	
14	 C27	12.165	53.847	91.973	C.2	1	RES1	0.000	
15	 C28	14.494	54.653	91.410	C.3	1	RES1	0.000	
16	 C29	14.891	55.504	90.202	C.3	1	RES1	0.000	
17	 C30	14.200	54.810	89.032	C.3	1	RES1	0.000	
18	 C31	12.899	54.306	89.643	C.3	1	RES1	0.000	
19	 C32	12.463	53.036	88.942	C.2	1	RES1	0.000	
20	 C33	11.051	52.143	87.093	C.3	1	RES1	0.000	
21	 C34	11.865	51.892	85.849	C.2	1	RES1	0.000	
22	 C35	11.759	50.680	85.159	C.2	1	RES1	0.000	
23	 C36	12.546	50.433	84.027	C.2	1	RES1	0.000	
24	 C37	13.466	51.412	83.564	C.2	1	RES1	0.000	
25	 C38	14.301	51.131	82.379	C.2	1	RES1	0.000	
26	 C39	13.943	50.511	81.200	C.2	1	RES1	0.000	
27	 C40	12.636	49.967	80.783	C.3	1	RES1	0.000	
28	 C41	16.050	50.944	80.733	C.2	1	RES1	0.000	
29	 C42	13.551	52.615	84.255	C.2	1	RES1	0.000	
30	 C43	12.742	52.869	85.348	C.2	1	RES1	0.000	
31	 C44	12.735	52.309	94.003	C.3	1	RES1	0.000	
32	 C45	13.274	52.358	95.440	C.3	1	RES1	0.000	
33	 C46	13.820	51.611	93.119	C.3	1	RES1	0.000	
34	 C47	11.463	51.431	93.992	C.3	1	RES1	0.000	
@<TRIPOS>BOND
1 1 25 ar
2 1 28 ar
3 8 14 2
4 9 16 1
5 10 19 2
6 6 11 1
7 11 12 1
8 2 12 1
9 7 12 2
10 2 13 1
11 13 14 1
12 13 31 1
13 3 14 1
14 3 15 1
15 15 16 1
16 16 17 1
17 17 18 1
18 3 18 1
19 18 19 1
20 4 19 1
21 4 20 1
22 20 21 1
23 21 22 ar
24 21 30 ar
25 22 23 ar
26 23 24 ar
27 24 25 1
28 24 29 ar
29 25 26 ar
30 5 26 ar
31 26 27 1
32 5 28 ar
33 29 30 ar
34 31 32 1
35 31 33 1
36 31 34 1
@<TRIPOS>SUBSTRUCTURE
1	RES1	1	GROUP	1 ****	RES
