# created with PyMOL 2.5.2
@<TRIPOS>MOLECULE
VHL_5NVV_E3ligase
34 36 1                 
SMALL
USER_CHARGES
@<TRIPOS>ATOM
1	  S1	15.979	51.837	82.462	S.2	1	RES1	0.000	
2	  N4	11.463	54.545	94.253	N.pl3	1	RES1	0.000	
3	  N5	13.011	54.003	91.038	N.pl3	1	RES1	0.000	
4	  N6	11.344	52.986	87.857	N.pl3	1	RES1	0.000	
5	  N7	15.168	50.717	80.309	N.2	1	RES1	0.000	
6	  O9	10.693	57.678	96.032	O.3	1	RES1	0.000	
7	 O10	12.735	56.429	94.695	O.2	1	RES1	0.000	
8	 O11	10.877	53.663	91.731	O.2	1	RES1	0.000	
9	 O12	14.288	56.643	90.280	O.3	1	RES1	0.000	
10	 O13	12.783	51.715	89.172	O.2	1	RES1	0.000	
11	 C26	10.468	56.382	95.477	C.3	1	RES1	0.000	
12	 C27	11.677	55.802	94.791	C.2	1	RES1	0.000	
13	 C28	12.478	53.806	93.503	C.3	1	RES1	0.000	
14	 C29	12.033	53.839	92.022	C.2	1	RES1	0.000	
15	 C30	14.419	54.406	91.293	C.3	1	RES1	0.000	
16	 C31	14.726	55.286	90.080	C.3	1	RES1	0.000	
17	 C32	13.965	54.648	88.951	C.3	1	RES1	0.000	
18	 C33	12.695	54.128	89.608	C.3	1	RES1	0.000	
19	 C34	12.254	52.826	88.916	C.2	1	RES1	0.000	
20	 C35	10.904	51.845	87.070	C.3	1	RES1	0.000	
21	 C36	11.782	51.693	85.832	C.2	1	RES1	0.000	
22	 C37	11.829	50.502	85.124	C.2	1	RES1	0.000	
23	 C38	12.648	50.357	84.013	C.2	1	RES1	0.000	
24	 C39	13.493	51.407	83.603	C.2	1	RES1	0.000	
25	 C40	14.369	51.285	82.437	C.2	1	RES1	0.000	
26	 C41	14.084	50.694	81.180	C.2	1	RES1	0.000	
27	 C42	12.820	50.124	80.689	C.3	1	RES1	0.000	
28	 C43	16.212	51.277	80.853	C.2	1	RES1	0.000	
29	 C44	13.449	52.617	84.312	C.2	1	RES1	0.000	
30	 C45	12.606	52.761	85.427	C.2	1	RES1	0.000	
31	 C46	12.722	52.372	94.047	C.3	1	RES1	0.000	
32	 C47	13.676	51.543	93.172	C.3	1	RES1	0.000	
33	 C48	13.314	52.435	95.457	C.3	1	RES1	0.000	
34	 C49	11.389	51.616	94.142	C.3	1	RES1	0.000	
@<TRIPOS>BOND
1 1 25 ar
2 1 28 ar
3 7 12 2
4 8 14 2
5 9 16 1
6 10 19 2
7 6 11 1
8 11 12 1
9 2 12 1
10 2 13 1
11 13 14 1
12 13 31 1
13 3 14 1
14 3 15 1
15 15 16 1
16 16 17 1
17 17 18 1
18 3 18 1
19 18 19 1
20 4 19 1
21 4 20 1
22 20 21 1
23 21 22 ar
24 21 30 ar
25 22 23 ar
26 23 24 ar
27 24 25 1
28 24 29 ar
29 25 26 ar
30 5 26 ar
31 26 27 1
32 5 28 ar
33 29 30 ar
34 31 32 1
35 31 33 1
36 31 34 1
@<TRIPOS>SUBSTRUCTURE
1	RES1	1	GROUP	1 ****	RES
