# created with PyMOL 2.5.2
@<TRIPOS>MOLECULE
VHL_5NVV_E3ligase
34 36 1                 
SMALL
USER_CHARGES
@<TRIPOS>ATOM
1	  S1	15.881	51.564	82.323	S.2	1	RES1	0.000	
2	  N4	11.416	54.393	94.232	N.pl3	1	RES1	0.000	
3	  N5	13.177	54.203	91.080	N.pl3	1	RES1	0.000	
4	  N6	11.588	53.292	87.849	N.pl3	1	RES1	0.000	
5	  N7	14.921	50.399	80.236	N.2	1	RES1	0.000	
6	 O10	10.429	57.414	96.062	O.3	1	RES1	0.000	
7	 O11	12.614	56.239	94.896	O.2	1	RES1	0.000	
8	 O12	11.006	53.688	91.594	O.2	1	RES1	0.000	
9	 O13	14.384	56.934	90.398	O.3	1	RES1	0.000	
10	 O14	12.869	52.025	89.309	O.2	1	RES1	0.000	
11	 C28	10.279	56.098	95.512	C.3	1	RES1	0.000	
12	 C29	11.574	55.604	94.837	C.2	1	RES1	0.000	
13	 C30	12.497	53.742	93.489	C.3	1	RES1	0.000	
14	 C31	12.146	53.868	91.979	C.2	1	RES1	0.000	
15	 C32	14.514	54.698	91.382	C.3	1	RES1	0.000	
16	 C33	14.847	55.574	90.215	C.3	1	RES1	0.000	
17	 C34	14.149	54.949	89.044	C.3	1	RES1	0.000	
18	 C35	12.851	54.412	89.660	C.3	1	RES1	0.000	
19	 C36	12.477	53.113	88.906	C.2	1	RES1	0.000	
20	 C37	11.042	52.143	87.090	C.3	1	RES1	0.000	
21	 C38	11.858	51.886	85.881	C.2	1	RES1	0.000	
22	 C39	11.780	50.640	85.205	C.2	1	RES1	0.000	
23	 C40	12.532	50.383	84.072	C.2	1	RES1	0.000	
24	 C41	13.397	51.350	83.546	C.2	1	RES1	0.000	
25	 C42	14.233	51.083	82.369	C.2	1	RES1	0.000	
26	 C43	13.897	50.440	81.168	C.2	1	RES1	0.000	
27	 C44	12.610	49.842	80.774	C.3	1	RES1	0.000	
28	 C45	16.018	50.955	80.741	C.2	1	RES1	0.000	
29	 C46	13.504	52.578	84.235	C.2	1	RES1	0.000	
30	 C47	12.741	52.861	85.360	C.2	1	RES1	0.000	
31	 C48	12.735	52.261	93.945	C.3	1	RES1	0.000	
32	 C49	13.373	52.236	95.357	C.3	1	RES1	0.000	
33	 C50	13.635	51.458	92.989	C.3	1	RES1	0.000	
34	 C51	11.376	51.522	94.058	C.3	1	RES1	0.000	
@<TRIPOS>BOND
1 1 25 ar
2 1 28 ar
3 6 11 1
4 7 12 2
5 8 14 2
6 9 16 1
7 10 19 2
8 11 12 1
9 2 12 1
10 2 13 1
11 13 14 1
12 13 31 1
13 3 14 1
14 3 15 1
15 15 16 1
16 16 17 1
17 17 18 1
18 3 18 1
19 18 19 1
20 4 19 1
21 4 20 1
22 20 21 1
23 21 22 ar
24 21 30 ar
25 22 23 ar
26 23 24 ar
27 24 25 1
28 24 29 ar
29 25 26 ar
30 5 26 ar
31 26 27 1
32 5 28 ar
33 29 30 ar
34 31 32 1
35 31 33 1
36 31 34 1
@<TRIPOS>SUBSTRUCTURE
1	RES1	1	GROUP	1 ****	RES
