# created with PyMOL 2.5.2
@<TRIPOS>MOLECULE
VHL_4W9H_E3ligase
33 35 1                 
SMALL
USER_CHARGES
@<TRIPOS>ATOM
1	  S2	15.519	51.672	82.138	S.2	1	RES1	0.000	
2	  N5	14.548	50.657	79.973	N.2	1	RES1	0.000	
3	  N6	11.021	52.882	87.747	N.pl3	1	RES1	0.000	
4	  N7	12.474	54.178	90.852	N.pl3	1	RES1	0.000	
5	  N8	11.080	54.621	94.118	N.pl3	1	RES1	0.000	
6	 O11	12.519	51.897	89.206	O.2	1	RES1	0.000	
7	 O12	15.463	55.598	89.477	O.3	1	RES1	0.000	
8	 O13	10.366	53.775	91.637	O.2	1	RES1	0.000	
9	 O14	12.466	56.385	94.681	O.2	1	RES1	0.000	
10	 C31	11.649	50.289	85.123	C.2	1	RES1	0.000	
11	 C32	12.393	50.163	83.955	C.2	1	RES1	0.000	
12	 C33	13.103	51.221	83.423	C.2	1	RES1	0.000	
13	 C34	13.873	51.112	82.171	C.2	1	RES1	0.000	
14	 C35	13.545	50.579	80.930	C.2	1	RES1	0.000	
15	 C36	12.266	49.934	80.516	C.3	1	RES1	0.000	
16	 C37	15.609	51.229	80.504	C.2	1	RES1	0.000	
17	 C38	13.007	52.475	84.069	C.2	1	RES1	0.000	
18	 C39	12.258	52.620	85.239	C.2	1	RES1	0.000	
19	 C40	11.564	51.527	85.795	C.2	1	RES1	0.000	
20	 C41	10.726	51.673	87.012	C.3	1	RES1	0.000	
21	 C42	11.892	52.872	88.827	C.2	1	RES1	0.000	
22	 C43	12.066	54.263	89.454	C.3	1	RES1	0.000	
23	 C44	13.211	55.027	88.794	C.3	1	RES1	0.000	
24	 C45	14.435	54.606	89.595	C.3	1	RES1	0.000	
25	 C46	13.890	54.493	91.025	C.3	1	RES1	0.000	
26	 C47	11.531	53.940	91.867	C.2	1	RES1	0.000	
27	 C48	12.049	53.867	93.319	C.3	1	RES1	0.000	
28	 C49	11.356	55.828	94.713	C.2	1	RES1	0.000	
29	 C50	10.182	56.433	95.412	C.3	1	RES1	0.000	
30	 C51	12.283	52.416	93.869	C.3	1	RES1	0.000	
31	 C52	10.924	51.738	94.018	C.3	1	RES1	0.000	
32	 C53	12.918	52.482	95.248	C.3	1	RES1	0.000	
33	 C54	13.187	51.567	92.941	C.3	1	RES1	0.000	
@<TRIPOS>BOND
1 1 13 ar
2 1 16 ar
3 6 21 2
4 7 24 1
5 8 26 2
6 9 28 2
7 10 11 ar
8 10 19 ar
9 11 12 ar
10 12 13 1
11 12 17 ar
12 13 14 ar
13 2 14 ar
14 14 15 1
15 2 16 ar
16 17 18 ar
17 18 19 ar
18 19 20 1
19 3 20 1
20 3 21 1
21 21 22 1
22 4 22 1
23 22 23 1
24 23 24 1
25 24 25 1
26 4 25 1
27 4 26 1
28 26 27 1
29 5 27 1
30 27 30 1
31 5 28 1
32 28 29 1
33 30 31 1
34 30 32 1
35 30 33 1
@<TRIPOS>SUBSTRUCTURE
1	RES1	1	GROUP	1 ****	RES
