# created with PyMOL 2.5.2
@<TRIPOS>MOLECULE
VHL_5LLI_E3ligase
37 40 1                 
SMALL
USER_CHARGES
@<TRIPOS>ATOM
1	  C1	12.716	50.746	81.635	C.3	1	RES1	0.000	
2	  N1	11.737	53.996	88.806	N.pl3	1	RES1	0.000	
3	  O1	13.141	52.828	90.198	O.2	1	RES1	0.000	
4	  C2	13.997	51.308	82.034	C.2	1	RES1	0.000	
5	  N2	13.331	55.006	91.890	N.pl3	1	RES1	0.000	
6	  O2	14.743	57.623	91.437	O.3	1	RES1	0.000	
7	  S2	16.015	52.377	83.195	S.2	1	RES1	0.000	
8	  C3	14.336	51.876	83.252	C.2	1	RES1	0.000	
9	  N3	11.457	55.232	95.015	N.pl3	1	RES1	0.000	
10	  O3	11.127	54.599	92.387	O.2	1	RES1	0.000	
11	  C4	13.578	52.079	84.491	C.2	1	RES1	0.000	
12	  N4	8.178	55.485	96.085	N.1	1	RES1	0.000	
13	  O4	12.620	56.947	95.988	O.2	1	RES1	0.000	
14	  C5	12.774	51.099	85.049	C.2	1	RES1	0.000	
15	  C6	12.010	51.335	86.197	C.2	1	RES1	0.000	
16	  C7	12.036	52.578	86.812	C.2	1	RES1	0.000	
17	  C8	11.266	52.844	88.076	C.3	1	RES1	0.000	
18	  C9	12.658	53.897	89.803	C.2	1	RES1	0.000	
19	 C10	13.062	55.221	90.447	C.3	1	RES1	0.000	
20	 N10	15.013	51.306	81.077	N.2	1	RES1	0.000	
21	 C11	14.358	55.780	89.881	C.3	1	RES1	0.000	
22	 C12	15.136	56.287	91.120	C.3	1	RES1	0.000	
23	 C13	14.693	55.320	92.212	C.3	1	RES1	0.000	
24	 C14	12.274	54.757	92.794	C.2	1	RES1	0.000	
25	 C15	12.624	54.643	94.288	C.3	1	RES1	0.000	
26	 C16	11.568	56.370	95.793	C.2	1	RES1	0.000	
27	 C17	10.337	56.905	96.414	C.3	1	RES1	0.000	
28	 C18	9.104	56.149	96.246	C.1	1	RES1	0.000	
29	 C19	10.145	58.407	96.471	C.3	1	RES1	0.000	
30	 C20	10.441	57.676	97.724	C.3	1	RES1	0.000	
31	 C21	12.945	53.199	94.746	C.3	1	RES1	0.000	
32	 C22	11.649	52.344	94.707	C.3	1	RES1	0.000	
33	 C23	13.436	53.194	96.188	C.3	1	RES1	0.000	
34	 C24	13.978	52.494	93.870	C.3	1	RES1	0.000	
35	 C25	12.840	53.578	86.233	C.2	1	RES1	0.000	
36	 C63	13.579	53.348	85.093	C.2	1	RES1	0.000	
37	 C64	16.085	51.830	81.577	C.2	1	RES1	0.000	
@<TRIPOS>BOND
1 1 4 1
2 2 17 1
3 2 18 1
4 3 18 2
5 4 8 ar
6 7 8 ar
7 7 37 ar
8 8 11 1
9 11 14 ar
10 11 36 ar
11 14 15 ar
12 15 16 ar
13 16 17 1
14 5 19 1
15 18 19 1
16 19 21 1
17 4 20 ar
18 20 37 ar
19 21 22 1
20 6 22 1
21 22 23 1
22 5 23 1
23 5 24 1
24 10 24 2
25 24 25 1
26 9 25 1
27 25 31 1
28 9 26 1
29 13 26 2
30 26 27 1
31 27 28 1
32 27 29 1
33 27 30 1
34 12 28 3
35 29 30 1
36 31 32 1
37 31 33 1
38 31 34 1
39 16 35 ar
40 35 36 ar
@<TRIPOS>SUBSTRUCTURE
1	RES1	1	GROUP	1 ****	RES
