# created with PyMOL 2.5.2
@<TRIPOS>MOLECULE
VHL_5NVV_E3ligase
34 36 1                 
SMALL
USER_CHARGES
@<TRIPOS>ATOM
1	  S2	15.912	51.535	82.274	S.2	1	RES1	0.000	
2	  N5	11.346	54.382	94.204	N.pl3	1	RES1	0.000	
3	  N6	13.116	54.233	91.062	N.pl3	1	RES1	0.000	
4	  N7	11.632	53.297	87.879	N.pl3	1	RES1	0.000	
5	  N8	14.925	50.296	80.236	N.2	1	RES1	0.000	
6	 O10	10.270	57.369	96.079	O.3	1	RES1	0.000	
7	 O11	12.506	56.226	94.924	O.2	1	RES1	0.000	
8	 O12	10.954	53.635	91.564	O.2	1	RES1	0.000	
9	 O13	14.471	56.899	90.688	O.3	1	RES1	0.000	
10	 O14	13.009	52.091	89.328	O.2	1	RES1	0.000	
11	 C31	10.160	56.050	95.523	C.3	1	RES1	0.000	
12	 C32	11.454	55.596	94.854	C.2	1	RES1	0.000	
13	 C33	12.442	53.747	93.462	C.3	1	RES1	0.000	
14	 C34	12.109	53.901	91.964	C.2	1	RES1	0.000	
15	 C35	14.491	54.563	91.388	C.3	1	RES1	0.000	
16	 C36	14.887	55.567	90.318	C.3	1	RES1	0.000	
17	 C37	14.133	55.106	89.094	C.3	1	RES1	0.000	
18	 C38	12.842	54.485	89.665	C.3	1	RES1	0.000	
19	 C39	12.529	53.138	88.953	C.2	1	RES1	0.000	
20	 C40	11.170	52.161	87.117	C.3	1	RES1	0.000	
21	 C41	11.917	51.940	85.864	C.2	1	RES1	0.000	
22	 C42	12.719	52.888	85.294	C.2	1	RES1	0.000	
23	 C43	13.464	52.637	84.127	C.2	1	RES1	0.000	
24	 C44	13.425	51.393	83.494	C.2	1	RES1	0.000	
25	 C45	14.221	51.070	82.307	C.2	1	RES1	0.000	
26	 C46	13.900	50.407	81.144	C.2	1	RES1	0.000	
27	 C47	12.617	49.814	80.741	C.3	1	RES1	0.000	
28	 C48	16.018	50.827	80.717	C.2	1	RES1	0.000	
29	 C49	12.640	50.373	84.094	C.2	1	RES1	0.000	
30	 C50	11.905	50.633	85.254	C.2	1	RES1	0.000	
31	 C51	12.737	52.282	93.923	C.3	1	RES1	0.000	
32	 C52	13.736	51.550	93.014	C.3	1	RES1	0.000	
33	 C53	13.273	52.269	95.366	C.3	1	RES1	0.000	
34	 C54	11.420	51.495	93.892	C.3	1	RES1	0.000	
@<TRIPOS>BOND
1 1 25 ar
2 1 28 ar
3 6 11 1
4 7 12 2
5 8 14 2
6 9 16 1
7 10 19 2
8 11 12 1
9 2 12 1
10 2 13 1
11 13 14 1
12 13 31 1
13 3 14 1
14 3 15 1
15 15 16 1
16 16 17 1
17 17 18 1
18 3 18 1
19 18 19 1
20 4 19 1
21 4 20 1
22 20 21 1
23 21 22 ar
24 21 30 ar
25 22 23 ar
26 23 24 ar
27 24 25 1
28 24 29 ar
29 25 26 ar
30 5 26 ar
31 26 27 1
32 5 28 ar
33 29 30 ar
34 31 32 1
35 31 33 1
36 31 34 1
@<TRIPOS>SUBSTRUCTURE
1	RES1	1	GROUP	1 ****	RES
