# created with PyMOL 2.5.2
@<TRIPOS>MOLECULE
VHL_5LLI_E3ligase
37 40 1                 
SMALL
USER_CHARGES
@<TRIPOS>ATOM
1	  S1	16.015	52.363	83.170	S.2	1	RES1	0.000	
2	  N4	14.982	51.295	81.086	N.2	1	RES1	0.000	
3	  N5	11.752	53.977	88.796	N.pl3	1	RES1	0.000	
4	  N6	13.330	54.982	91.914	N.pl3	1	RES1	0.000	
5	  N7	11.472	55.233	95.014	N.pl3	1	RES1	0.000	
6	  N8	8.158	55.516	96.049	N.1	1	RES1	0.000	
7	 O11	13.117	52.773	90.204	O.2	1	RES1	0.000	
8	 O12	14.636	57.634	91.339	O.3	1	RES1	0.000	
9	 O13	11.129	54.615	92.408	O.2	1	RES1	0.000	
10	 O14	12.653	56.945	95.998	O.2	1	RES1	0.000	
11	 C28	12.000	51.367	86.159	C.2	1	RES1	0.000	
12	 C29	12.770	51.144	85.017	C.2	1	RES1	0.000	
13	 C30	13.603	52.114	84.475	C.2	1	RES1	0.000	
14	 C31	14.355	51.886	83.268	C.2	1	RES1	0.000	
15	 C32	13.982	51.310	82.027	C.2	1	RES1	0.000	
16	 C33	12.684	50.704	81.686	C.3	1	RES1	0.000	
17	 C34	16.105	51.821	81.559	C.2	1	RES1	0.000	
18	 C35	13.615	53.351	85.098	C.2	1	RES1	0.000	
19	 C36	12.874	53.611	86.258	C.2	1	RES1	0.000	
20	 C37	12.046	52.607	86.785	C.2	1	RES1	0.000	
21	 C38	11.252	52.876	88.046	C.3	1	RES1	0.000	
22	 C39	12.676	53.866	89.823	C.2	1	RES1	0.000	
23	 C40	13.084	55.193	90.481	C.3	1	RES1	0.000	
24	 C41	14.400	55.705	89.924	C.3	1	RES1	0.000	
25	 C42	15.103	56.290	91.126	C.3	1	RES1	0.000	
26	 C43	14.680	55.374	92.267	C.3	1	RES1	0.000	
27	 C44	12.269	54.759	92.791	C.2	1	RES1	0.000	
28	 C45	12.595	54.642	94.304	C.3	1	RES1	0.000	
29	 C46	11.571	56.379	95.813	C.2	1	RES1	0.000	
30	 C47	10.328	56.918	96.390	C.3	1	RES1	0.000	
31	 C48	9.103	56.154	96.236	C.1	1	RES1	0.000	
32	 C49	10.158	58.422	96.478	C.3	1	RES1	0.000	
33	 C50	10.429	57.681	97.720	C.3	1	RES1	0.000	
34	 C51	12.908	53.170	94.747	C.3	1	RES1	0.000	
35	 C52	11.676	52.259	94.776	C.3	1	RES1	0.000	
36	 C53	13.491	53.201	96.189	C.3	1	RES1	0.000	
37	 C54	13.981	52.535	93.822	C.3	1	RES1	0.000	
@<TRIPOS>BOND
1 1 14 ar
2 1 17 ar
3 7 22 2
4 8 25 1
5 9 27 2
6 10 29 2
7 11 12 ar
8 11 20 ar
9 12 13 ar
10 13 14 1
11 13 18 ar
12 14 15 ar
13 2 15 ar
14 15 16 1
15 2 17 ar
16 18 19 ar
17 19 20 ar
18 20 21 1
19 3 21 1
20 3 22 1
21 22 23 1
22 4 23 1
23 23 24 1
24 24 25 1
25 25 26 1
26 4 26 1
27 4 27 1
28 27 28 1
29 5 28 1
30 28 34 1
31 5 29 1
32 29 30 1
33 30 31 1
34 30 32 1
35 30 33 1
36 6 31 3
37 32 33 1
38 34 35 1
39 34 36 1
40 34 37 1
@<TRIPOS>SUBSTRUCTURE
1	RES1	1	GROUP	1 ****	RES
