# created with PyMOL 2.5.2
@<TRIPOS>MOLECULE
BRD4_7BQU_E3ligase
19 21 1                 
SMALL
USER_CHARGES
@<TRIPOS>ATOM
1	  O4	27.370	17.225	11.964	O.2	1	RES1	0.000	
2	  O5	26.383	20.294	17.903	O.2	1	RES1	0.000	
3	  N6	25.405	17.704	13.152	N.2	1	RES1	0.000	
4	  O6	23.734	19.581	14.290	O.2	1	RES1	0.000	
5	  N7	25.072	19.877	16.082	N.pl3	1	RES1	0.000	
6	  O7	23.087	17.686	13.627	O.2	1	RES1	0.000	
7	 C19	25.558	15.498	10.256	C.2	1	RES1	0.000	
8	 C20	24.491	14.834	9.656	C.2	1	RES1	0.000	
9	 C21	23.190	14.974	10.181	C.2	1	RES1	0.000	
10	 C22	22.938	15.800	11.286	C.2	1	RES1	0.000	
11	 C23	24.021	16.432	11.860	C.2	1	RES1	0.000	
12	 C24	25.290	16.290	11.348	C.2	1	RES1	0.000	
13	 C25	26.183	17.123	12.183	C.2	1	RES1	0.000	
14	 C26	25.932	18.643	14.133	C.3	1	RES1	0.000	
15	 C27	26.850	17.981	15.175	C.3	1	RES1	0.000	
16	 C28	27.379	18.993	16.132	C.3	1	RES1	0.000	
17	 C29	26.243	19.780	16.789	C.2	1	RES1	0.000	
18	 C30	24.800	19.387	14.827	C.2	1	RES1	0.000	
19	 C31	24.073	17.355	12.998	C.2	1	RES1	0.000	
@<TRIPOS>BOND
1 7 8 ar
2 7 12 ar
3 8 9 ar
4 9 10 ar
5 10 11 ar
6 11 12 ar
7 11 19 ar
8 12 13 ar
9 1 13 2
10 3 13 ar
11 3 14 1
12 14 15 1
13 14 18 1
14 15 16 1
15 16 17 1
16 2 17 2
17 5 17 1
18 4 18 2
19 5 18 1
20 3 19 ar
21 6 19 2
@<TRIPOS>SUBSTRUCTURE
1	RES1	1	GROUP	1 ****	RES
