# created with PyMOL 2.5.2
@<TRIPOS>MOLECULE
CRBN_4W9H_E3ligase
33 35 1                 
SMALL
USER_CHARGES
@<TRIPOS>ATOM
1	  C1	12.371	49.925	80.545	C.3	1	RES1	0.000	
2	  N1	10.985	52.804	87.742	N.pl3	1	RES1	0.000	
3	  O1	12.412	51.832	89.236	O.2	1	RES1	0.000	
4	  S1	15.484	51.771	82.247	S.2	1	RES1	0.000	
5	  C2	13.625	50.615	80.999	C.2	1	RES1	0.000	
6	  N2	12.539	54.148	90.842	N.pl3	1	RES1	0.000	
7	  O2	15.476	55.592	89.436	O.3	1	RES1	0.000	
8	  C3	13.895	51.150	82.241	C.2	1	RES1	0.000	
9	  N3	11.090	54.616	94.095	N.pl3	1	RES1	0.000	
10	  O3	10.396	53.796	91.608	O.2	1	RES1	0.000	
11	  C4	13.053	51.254	83.455	C.2	1	RES1	0.000	
12	  O4	12.460	56.438	94.588	O.2	1	RES1	0.000	
13	  C5	12.960	52.478	84.144	C.2	1	RES1	0.000	
14	  C6	12.165	52.597	85.273	C.2	1	RES1	0.000	
15	  C7	11.432	51.493	85.753	C.2	1	RES1	0.000	
16	  N7	14.630	50.710	80.085	N.2	1	RES1	0.000	
17	  C8	10.632	51.602	87.010	C.3	1	RES1	0.000	
18	  C9	11.882	52.839	88.782	C.2	1	RES1	0.000	
19	 C10	12.109	54.203	89.423	C.3	1	RES1	0.000	
20	 C11	13.242	54.937	88.735	C.3	1	RES1	0.000	
21	 C12	14.467	54.599	89.591	C.3	1	RES1	0.000	
22	 C13	13.916	54.548	90.993	C.3	1	RES1	0.000	
23	 C14	11.570	53.925	91.850	C.2	1	RES1	0.000	
24	 C15	12.088	53.880	93.316	C.3	1	RES1	0.000	
25	 C16	11.396	55.850	94.674	C.2	1	RES1	0.000	
26	 C17	10.219	56.465	95.376	C.3	1	RES1	0.000	
27	 C40	12.308	52.419	93.851	C.3	1	RES1	0.000	
28	 C41	10.941	51.715	93.981	C.3	1	RES1	0.000	
29	 C42	12.944	52.453	95.240	C.3	1	RES1	0.000	
30	 C43	13.202	51.559	92.931	C.3	1	RES1	0.000	
31	 C44	11.510	50.299	85.064	C.2	1	RES1	0.000	
32	 C45	12.295	50.183	83.911	C.2	1	RES1	0.000	
33	 C46	15.676	51.315	80.616	C.2	1	RES1	0.000	
@<TRIPOS>BOND
1 1 5 1
2 2 17 1
3 2 18 1
4 3 18 2
5 4 8 ar
6 4 33 ar
7 5 8 ar
8 5 16 ar
9 8 11 1
10 11 13 ar
11 11 32 ar
12 13 14 ar
13 14 15 ar
14 15 17 1
15 6 19 1
16 18 19 1
17 19 20 1
18 20 21 1
19 7 21 1
20 21 22 1
21 6 22 1
22 6 23 1
23 10 23 2
24 23 24 1
25 9 24 1
26 24 27 1
27 9 25 1
28 12 25 2
29 25 26 1
30 27 28 1
31 27 29 1
32 27 30 1
33 15 31 ar
34 31 32 ar
35 16 33 ar
@<TRIPOS>SUBSTRUCTURE
1	RES1	1	GROUP	1 ****	RES
