# created with PyMOL 2.5.2
@<TRIPOS>MOLECULE
CRBN_4W9H_E3ligase
33 35 1                 
SMALL
USER_CHARGES
@<TRIPOS>ATOM
1	  C1	12.219	49.986	80.423	C.3	1	RES1	0.000	
2	  N1	11.125	53.029	87.576	N.pl3	1	RES1	0.000	
3	  O1	12.253	51.780	89.125	O.2	1	RES1	0.000	
4	  S1	15.583	51.407	82.072	S.2	1	RES1	0.000	
5	  C2	13.564	50.443	80.862	C.2	1	RES1	0.000	
6	  N2	12.530	54.021	90.876	N.pl3	1	RES1	0.000	
7	  O2	13.978	56.599	90.240	O.3	1	RES1	0.000	
8	  C3	13.904	51.002	82.097	C.2	1	RES1	0.000	
9	  N3	11.187	54.603	94.147	N.pl3	1	RES1	0.000	
10	  O3	10.393	53.814	91.693	O.2	1	RES1	0.000	
11	  C4	13.112	51.224	83.304	C.2	1	RES1	0.000	
12	  O4	12.531	56.401	94.660	O.2	1	RES1	0.000	
13	  C5	12.248	50.223	83.784	C.2	1	RES1	0.000	
14	  C6	11.464	50.452	84.930	C.2	1	RES1	0.000	
15	  C7	11.498	51.677	85.590	C.2	1	RES1	0.000	
16	  C8	10.655	51.924	86.825	C.3	1	RES1	0.000	
17	  N8	14.607	50.329	79.951	N.2	1	RES1	0.000	
18	  C9	11.932	52.892	88.703	C.2	1	RES1	0.000	
19	 C10	12.304	54.154	89.420	C.3	1	RES1	0.000	
20	 C11	13.658	54.659	88.851	C.3	1	RES1	0.000	
21	 C12	14.387	55.231	90.043	C.3	1	RES1	0.000	
22	 C13	13.938	54.354	91.203	C.3	1	RES1	0.000	
23	 C14	11.603	53.854	91.903	C.2	1	RES1	0.000	
24	 C15	12.134	53.831	93.348	C.3	1	RES1	0.000	
25	 C16	11.458	55.826	94.713	C.2	1	RES1	0.000	
26	 C17	10.306	56.405	95.488	C.3	1	RES1	0.000	
27	 C42	12.322	52.398	93.898	C.3	1	RES1	0.000	
28	 C43	10.991	51.626	94.061	C.3	1	RES1	0.000	
29	 C44	13.019	52.427	95.293	C.3	1	RES1	0.000	
30	 C45	13.221	51.545	92.962	C.3	1	RES1	0.000	
31	 C46	12.340	52.688	85.082	C.2	1	RES1	0.000	
32	 C47	13.134	52.462	83.973	C.2	1	RES1	0.000	
33	 C48	15.703	50.818	80.490	C.2	1	RES1	0.000	
@<TRIPOS>BOND
1 1 5 1
2 2 16 1
3 2 18 1
4 3 18 2
5 4 8 ar
6 4 33 ar
7 5 8 ar
8 5 17 ar
9 8 11 1
10 11 13 ar
11 11 32 ar
12 13 14 ar
13 14 15 ar
14 15 16 1
15 6 19 1
16 18 19 1
17 19 20 1
18 20 21 1
19 7 21 1
20 21 22 1
21 6 22 1
22 6 23 1
23 10 23 2
24 23 24 1
25 9 24 1
26 24 27 1
27 9 25 1
28 12 25 2
29 25 26 1
30 27 28 1
31 27 29 1
32 27 30 1
33 15 31 ar
34 31 32 ar
35 17 33 ar
@<TRIPOS>SUBSTRUCTURE
1	RES1	1	GROUP	1 ****	RES
