# created with PyMOL 2.5.2
@<TRIPOS>MOLECULE
CRBN_4W9H_E3ligase
33 35 1                 
SMALL
USER_CHARGES
@<TRIPOS>ATOM
1	  C1	12.359	49.872	80.581	C.3	1	RES1	0.000	
2	  N1	10.982	52.828	87.741	N.pl3	1	RES1	0.000	
3	  O1	12.378	51.832	89.247	O.2	1	RES1	0.000	
4	  S1	15.519	51.748	82.175	S.2	1	RES1	0.000	
5	  C2	13.600	50.561	80.967	C.2	1	RES1	0.000	
6	  N2	12.520	54.136	90.873	N.pl3	1	RES1	0.000	
7	  O2	15.463	55.624	89.442	O.3	1	RES1	0.000	
8	  C3	13.913	51.147	82.200	C.2	1	RES1	0.000	
9	  N3	11.113	54.621	94.105	N.pl3	1	RES1	0.000	
10	  O3	10.386	53.764	91.621	O.2	1	RES1	0.000	
11	  C4	13.067	51.292	83.414	C.2	1	RES1	0.000	
12	  O4	12.459	56.400	94.661	O.2	1	RES1	0.000	
13	  C5	12.948	52.521	84.098	C.2	1	RES1	0.000	
14	  C6	12.183	52.667	85.212	C.2	1	RES1	0.000	
15	  C7	11.451	51.556	85.714	C.2	1	RES1	0.000	
16	  N7	14.638	50.606	80.051	N.2	1	RES1	0.000	
17	  C8	10.666	51.650	86.982	C.3	1	RES1	0.000	
18	  C9	11.876	52.847	88.778	C.2	1	RES1	0.000	
19	 C10	12.104	54.218	89.434	C.3	1	RES1	0.000	
20	 C11	13.246	54.978	88.745	C.3	1	RES1	0.000	
21	 C12	14.458	54.629	89.598	C.3	1	RES1	0.000	
22	 C13	13.897	54.535	91.005	C.3	1	RES1	0.000	
23	 C14	11.581	53.925	91.870	C.2	1	RES1	0.000	
24	 C15	12.101	53.853	93.335	C.3	1	RES1	0.000	
25	 C16	11.371	55.836	94.696	C.2	1	RES1	0.000	
26	 C17	10.186	56.444	95.404	C.3	1	RES1	0.000	
27	 C42	12.317	52.424	93.876	C.3	1	RES1	0.000	
28	 C43	10.930	51.733	94.024	C.3	1	RES1	0.000	
29	 C44	12.946	52.473	95.294	C.3	1	RES1	0.000	
30	 C45	13.210	51.529	92.977	C.3	1	RES1	0.000	
31	 C46	11.532	50.335	85.036	C.2	1	RES1	0.000	
32	 C47	12.317	50.202	83.901	C.2	1	RES1	0.000	
33	 C48	15.653	51.224	80.578	C.2	1	RES1	0.000	
@<TRIPOS>BOND
1 1 5 1
2 2 17 1
3 2 18 1
4 3 18 2
5 4 8 ar
6 4 33 ar
7 5 8 ar
8 5 16 ar
9 8 11 1
10 11 13 ar
11 11 32 ar
12 13 14 ar
13 14 15 ar
14 15 17 1
15 6 19 1
16 18 19 1
17 19 20 1
18 20 21 1
19 7 21 1
20 21 22 1
21 6 22 1
22 6 23 1
23 10 23 2
24 23 24 1
25 9 24 1
26 24 27 1
27 9 25 1
28 12 25 2
29 25 26 1
30 27 28 1
31 27 29 1
32 27 30 1
33 15 31 ar
34 31 32 ar
35 16 33 ar
@<TRIPOS>SUBSTRUCTURE
1	RES1	1	GROUP	1 ****	RES
