# created with PyMOL 2.5.2
@<TRIPOS>MOLECULE
BRAF_4W9H_E3ligase
33 35 1                 
SMALL
USER_CHARGES
@<TRIPOS>ATOM
1	  S2	15.493	51.774	82.218	S.2	1	RES1	0.000	
2	  O5	12.437	56.421	94.595	O.2	1	RES1	0.000	
3	  O6	10.397	53.791	91.615	O.2	1	RES1	0.000	
4	  O7	15.470	55.586	89.423	O.3	1	RES1	0.000	
5	  N8	11.103	54.614	94.087	N.pl3	1	RES1	0.000	
6	  O8	12.462	51.813	89.208	O.2	1	RES1	0.000	
7	  N9	12.544	54.142	90.837	N.pl3	1	RES1	0.000	
8	 N10	10.979	52.799	87.769	N.pl3	1	RES1	0.000	
9	 N11	14.685	50.623	80.089	N.2	1	RES1	0.000	
10	 C25	10.186	56.451	95.366	C.3	1	RES1	0.000	
11	 C26	11.367	55.835	94.671	C.2	1	RES1	0.000	
12	 C27	12.111	53.861	93.331	C.3	1	RES1	0.000	
13	 C28	11.579	53.918	91.858	C.2	1	RES1	0.000	
14	 C29	13.908	54.573	90.974	C.3	1	RES1	0.000	
15	 C30	14.443	54.579	89.591	C.3	1	RES1	0.000	
16	 C31	13.245	54.953	88.742	C.3	1	RES1	0.000	
17	 C32	12.105	54.200	89.432	C.3	1	RES1	0.000	
18	 C33	11.886	52.820	88.780	C.2	1	RES1	0.000	
19	 C34	10.658	51.574	87.015	C.3	1	RES1	0.000	
20	 C35	11.429	51.501	85.753	C.2	1	RES1	0.000	
21	 C36	11.508	50.310	85.029	C.2	1	RES1	0.000	
22	 C37	12.259	50.204	83.865	C.2	1	RES1	0.000	
23	 C38	13.020	51.321	83.399	C.2	1	RES1	0.000	
24	 C39	13.865	51.188	82.220	C.2	1	RES1	0.000	
25	 C40	13.625	50.621	80.979	C.2	1	RES1	0.000	
26	 C41	12.320	50.015	80.509	C.3	1	RES1	0.000	
27	 C42	15.708	51.199	80.651	C.2	1	RES1	0.000	
28	 C43	12.962	52.502	84.131	C.2	1	RES1	0.000	
29	 C44	12.199	52.592	85.292	C.2	1	RES1	0.000	
30	 C45	12.321	52.443	93.869	C.3	1	RES1	0.000	
31	 C46	12.897	52.497	95.321	C.3	1	RES1	0.000	
32	 C47	13.261	51.563	93.048	C.3	1	RES1	0.000	
33	 C48	10.939	51.727	93.968	C.3	1	RES1	0.000	
@<TRIPOS>BOND
1 1 24 ar
2 1 27 ar
3 8 18 1
4 8 19 1
5 9 25 ar
6 9 27 ar
7 10 11 1
8 2 11 2
9 5 11 1
10 5 12 1
11 12 13 1
12 12 30 1
13 3 13 2
14 7 13 1
15 7 14 1
16 14 15 1
17 4 15 1
18 15 16 1
19 16 17 1
20 7 17 1
21 17 18 1
22 6 18 2
23 19 20 1
24 20 21 ar
25 20 29 ar
26 21 22 ar
27 22 23 ar
28 23 24 1
29 23 28 ar
30 24 25 ar
31 25 26 1
32 28 29 ar
33 30 31 1
34 30 32 1
35 30 33 1
@<TRIPOS>SUBSTRUCTURE
1	RES1	1	GROUP	1 ****	RES
