# created with PyMOL 2.5.2
@<TRIPOS>MOLECULE
BRAF_4W9H_E3ligase
33 35 1                 
SMALL
USER_CHARGES
@<TRIPOS>ATOM
1	  S2	15.512	51.293	81.983	S.2	1	RES1	0.000	
2	  O6	12.364	56.238	94.768	O.2	1	RES1	0.000	
3	  O7	10.604	53.637	91.444	O.2	1	RES1	0.000	
4	  N8	11.057	54.492	94.021	N.pl3	1	RES1	0.000	
5	  O8	14.061	56.803	90.174	O.3	1	RES1	0.000	
6	  N9	12.780	54.141	90.909	N.pl3	1	RES1	0.000	
7	  O9	12.267	51.927	89.351	O.2	1	RES1	0.000	
8	 N10	11.273	53.134	87.662	N.pl3	1	RES1	0.000	
9	 N11	14.338	50.286	79.894	N.2	1	RES1	0.000	
10	 C27	10.029	56.276	95.301	C.3	1	RES1	0.000	
11	 C28	11.291	55.676	94.665	C.2	1	RES1	0.000	
12	 C29	12.114	53.733	93.310	C.3	1	RES1	0.000	
13	 C30	11.773	53.845	91.819	C.2	1	RES1	0.000	
14	 C31	14.121	54.621	91.234	C.3	1	RES1	0.000	
15	 C32	14.521	55.446	90.019	C.3	1	RES1	0.000	
16	 C33	13.801	54.792	88.867	C.3	1	RES1	0.000	
17	 C34	12.481	54.310	89.470	C.3	1	RES1	0.000	
18	 C35	12.051	53.012	88.784	C.2	1	RES1	0.000	
19	 C36	10.774	52.049	86.897	C.3	1	RES1	0.000	
20	 C37	11.641	51.756	85.696	C.2	1	RES1	0.000	
21	 C38	12.553	52.677	85.195	C.2	1	RES1	0.000	
22	 C39	13.289	52.380	84.040	C.2	1	RES1	0.000	
23	 C40	13.121	51.172	83.343	C.2	1	RES1	0.000	
24	 C41	13.857	50.903	82.087	C.2	1	RES1	0.000	
25	 C42	13.411	50.371	80.897	C.2	1	RES1	0.000	
26	 C43	12.045	49.887	80.548	C.3	1	RES1	0.000	
27	 C44	15.506	50.739	80.375	C.2	1	RES1	0.000	
28	 C45	12.174	50.286	83.833	C.2	1	RES1	0.000	
29	 C46	11.441	50.543	84.965	C.2	1	RES1	0.000	
30	 C47	12.244	52.262	93.863	C.3	1	RES1	0.000	
31	 C48	13.229	51.419	93.034	C.3	1	RES1	0.000	
32	 C49	12.751	52.307	95.305	C.3	1	RES1	0.000	
33	 C50	10.894	51.584	93.860	C.3	1	RES1	0.000	
@<TRIPOS>BOND
1 1 24 ar
2 1 27 ar
3 8 18 1
4 8 19 1
5 9 25 ar
6 9 27 ar
7 10 11 1
8 2 11 2
9 4 11 1
10 4 12 1
11 12 13 1
12 12 30 1
13 3 13 2
14 6 13 1
15 6 14 1
16 14 15 1
17 5 15 1
18 15 16 1
19 16 17 1
20 6 17 1
21 17 18 1
22 7 18 2
23 19 20 1
24 20 21 ar
25 20 29 ar
26 21 22 ar
27 22 23 ar
28 23 24 1
29 23 28 ar
30 24 25 ar
31 25 26 1
32 28 29 ar
33 30 31 1
34 30 32 1
35 30 33 1
@<TRIPOS>SUBSTRUCTURE
1	RES1	1	GROUP	1 ****	RES
