# created with PyMOL 2.5.2
@<TRIPOS>MOLECULE
BRAF_4W9H_E3ligase
33 35 1                 
SMALL
USER_CHARGES
@<TRIPOS>ATOM
1	  S2	15.474	51.475	82.181	S.2	1	RES1	0.000	
2	  O7	12.443	56.277	94.644	O.2	1	RES1	0.000	
3	  N8	11.084	54.514	93.994	N.pl3	1	RES1	0.000	
4	  O8	10.632	53.633	91.426	O.2	1	RES1	0.000	
5	  N9	12.801	54.082	90.873	N.pl3	1	RES1	0.000	
6	  O9	14.114	56.703	90.096	O.3	1	RES1	0.000	
7	 N10	11.200	53.099	87.683	N.pl3	1	RES1	0.000	
8	 O10	12.290	51.789	89.239	O.2	1	RES1	0.000	
9	 N11	14.565	50.358	80.075	N.2	1	RES1	0.000	
10	 C29	10.128	56.350	95.208	C.3	1	RES1	0.000	
11	 C30	11.364	55.720	94.611	C.2	1	RES1	0.000	
12	 C31	12.150	53.745	93.301	C.3	1	RES1	0.000	
13	 C32	11.769	53.832	91.791	C.2	1	RES1	0.000	
14	 C33	14.147	54.532	91.164	C.3	1	RES1	0.000	
15	 C34	14.568	55.359	89.952	C.3	1	RES1	0.000	
16	 C35	13.790	54.694	88.793	C.3	1	RES1	0.000	
17	 C36	12.489	54.196	89.447	C.3	1	RES1	0.000	
18	 C37	12.047	52.914	88.765	C.2	1	RES1	0.000	
19	 C38	10.629	51.984	86.940	C.3	1	RES1	0.000	
20	 C39	11.428	51.725	85.659	C.2	1	RES1	0.000	
21	 C40	11.338	50.548	84.994	C.2	1	RES1	0.000	
22	 C41	12.071	50.286	83.833	C.2	1	RES1	0.000	
23	 C42	12.983	51.266	83.339	C.2	1	RES1	0.000	
24	 C43	13.817	50.991	82.185	C.2	1	RES1	0.000	
25	 C44	13.530	50.410	80.957	C.2	1	RES1	0.000	
26	 C45	12.223	49.807	80.509	C.3	1	RES1	0.000	
27	 C46	15.661	50.878	80.589	C.2	1	RES1	0.000	
28	 C47	13.098	52.469	84.079	C.2	1	RES1	0.000	
29	 C48	12.343	52.703	85.207	C.2	1	RES1	0.000	
30	 C49	12.278	52.291	93.859	C.3	1	RES1	0.000	
31	 C50	12.749	52.341	95.337	C.3	1	RES1	0.000	
32	 C51	13.272	51.430	93.043	C.3	1	RES1	0.000	
33	 C52	10.893	51.600	93.844	C.3	1	RES1	0.000	
@<TRIPOS>BOND
1 1 24 ar
2 1 27 ar
3 7 18 1
4 7 19 1
5 8 18 2
6 9 25 ar
7 9 27 ar
8 10 11 1
9 2 11 2
10 3 11 1
11 3 12 1
12 12 13 1
13 12 30 1
14 4 13 2
15 5 13 1
16 5 14 1
17 14 15 1
18 6 15 1
19 15 16 1
20 16 17 1
21 5 17 1
22 17 18 1
23 19 20 1
24 20 21 ar
25 20 29 ar
26 21 22 ar
27 22 23 ar
28 23 24 1
29 23 28 ar
30 24 25 ar
31 25 26 1
32 28 29 ar
33 30 31 1
34 30 32 1
35 30 33 1
@<TRIPOS>SUBSTRUCTURE
1	RES1	1	GROUP	1 ****	RES
