# created with PyMOL 2.5.2
@<TRIPOS>MOLECULE
BRAF_4W9H_E3ligase
33 35 1                 
SMALL
USER_CHARGES
@<TRIPOS>ATOM
1	  S2	15.494	51.371	82.161	S.2	1	RES1	0.000	
2	  N8	10.999	54.488	93.945	N.pl3	1	RES1	0.000	
3	  O8	12.259	56.261	94.722	O.2	1	RES1	0.000	
4	  N9	12.785	54.086	90.865	N.pl3	1	RES1	0.000	
5	  O9	10.596	53.646	91.368	O.2	1	RES1	0.000	
6	 N10	11.278	53.100	87.713	N.pl3	1	RES1	0.000	
7	 O10	14.187	56.691	90.313	O.3	1	RES1	0.000	
8	 N11	14.539	50.344	80.002	N.2	1	RES1	0.000	
9	 O11	12.433	51.899	89.253	O.2	1	RES1	0.000	
10	 C31	9.891	56.239	95.195	C.3	1	RES1	0.000	
11	 C32	11.169	55.701	94.598	C.2	1	RES1	0.000	
12	 C33	12.068	53.775	93.275	C.3	1	RES1	0.000	
13	 C34	11.734	53.851	91.777	C.2	1	RES1	0.000	
14	 C35	14.141	54.479	91.220	C.3	1	RES1	0.000	
15	 C36	14.599	55.337	90.057	C.3	1	RES1	0.000	
16	 C37	13.852	54.792	88.884	C.3	1	RES1	0.000	
17	 C38	12.517	54.283	89.429	C.3	1	RES1	0.000	
18	 C39	12.109	52.970	88.792	C.2	1	RES1	0.000	
19	 C40	10.758	51.966	86.971	C.3	1	RES1	0.000	
20	 C41	11.527	51.715	85.711	C.2	1	RES1	0.000	
21	 C42	12.354	52.717	85.179	C.2	1	RES1	0.000	
22	 C43	13.086	52.462	84.032	C.2	1	RES1	0.000	
23	 C44	13.000	51.238	83.336	C.2	1	RES1	0.000	
24	 C45	13.819	50.970	82.147	C.2	1	RES1	0.000	
25	 C46	13.486	50.411	80.928	C.2	1	RES1	0.000	
26	 C47	12.171	49.863	80.476	C.3	1	RES1	0.000	
27	 C48	15.620	50.838	80.530	C.2	1	RES1	0.000	
28	 C49	12.210	50.249	83.902	C.2	1	RES1	0.000	
29	 C50	11.465	50.482	85.086	C.2	1	RES1	0.000	
30	 C51	12.237	52.333	93.799	C.3	1	RES1	0.000	
31	 C52	13.356	51.617	93.007	C.3	1	RES1	0.000	
32	 C53	12.664	52.343	95.271	C.3	1	RES1	0.000	
33	 C54	10.967	51.491	93.686	C.3	1	RES1	0.000	
@<TRIPOS>BOND
1 1 24 ar
2 1 27 ar
3 6 18 1
4 6 19 1
5 7 15 1
6 8 25 ar
7 8 27 ar
8 9 18 2
9 10 11 1
10 2 11 1
11 3 11 2
12 2 12 1
13 12 13 1
14 12 30 1
15 4 13 1
16 5 13 2
17 4 14 1
18 14 15 1
19 15 16 1
20 16 17 1
21 4 17 1
22 17 18 1
23 19 20 1
24 20 21 ar
25 20 29 ar
26 21 22 ar
27 22 23 ar
28 23 24 1
29 23 28 ar
30 24 25 ar
31 25 26 1
32 28 29 ar
33 30 31 1
34 30 32 1
35 30 33 1
@<TRIPOS>SUBSTRUCTURE
1	RES1	1	GROUP	1 ****	RES
