# created with PyMOL 2.5.2
@<TRIPOS>MOLECULE
BRAF_4W9H_E3ligase
33 35 1                 
SMALL
USER_CHARGES
@<TRIPOS>ATOM
1	  S2	15.505	51.762	82.249	S.2	1	RES1	0.000	
2	  N8	11.099	54.645	94.115	N.pl3	1	RES1	0.000	
3	  O8	12.480	56.433	94.620	O.2	1	RES1	0.000	
4	  N9	12.496	54.125	90.848	N.pl3	1	RES1	0.000	
5	  O9	10.390	53.751	91.611	O.2	1	RES1	0.000	
6	 N10	10.954	52.782	87.734	N.pl3	1	RES1	0.000	
7	 O10	15.481	55.560	89.419	O.3	1	RES1	0.000	
8	 N11	14.665	50.698	80.044	N.2	1	RES1	0.000	
9	 O11	12.397	51.803	89.219	O.2	1	RES1	0.000	
10	 C31	10.210	56.485	95.359	C.3	1	RES1	0.000	
11	 C32	11.403	55.878	94.684	C.2	1	RES1	0.000	
12	 C33	12.094	53.884	93.341	C.3	1	RES1	0.000	
13	 C34	11.565	53.930	91.870	C.2	1	RES1	0.000	
14	 C35	13.894	54.540	90.989	C.3	1	RES1	0.000	
15	 C36	14.449	54.572	89.584	C.3	1	RES1	0.000	
16	 C37	13.229	54.910	88.752	C.3	1	RES1	0.000	
17	 C38	12.090	54.175	89.444	C.3	1	RES1	0.000	
18	 C39	11.868	52.810	88.787	C.2	1	RES1	0.000	
19	 C40	10.625	51.594	87.016	C.3	1	RES1	0.000	
20	 C41	11.447	51.490	85.729	C.2	1	RES1	0.000	
21	 C42	11.515	50.292	85.019	C.2	1	RES1	0.000	
22	 C43	12.283	50.202	83.865	C.2	1	RES1	0.000	
23	 C44	13.020	51.299	83.404	C.2	1	RES1	0.000	
24	 C45	13.868	51.166	82.210	C.2	1	RES1	0.000	
25	 C46	13.631	50.620	80.962	C.2	1	RES1	0.000	
26	 C47	12.377	49.947	80.483	C.3	1	RES1	0.000	
27	 C48	15.713	51.281	80.624	C.2	1	RES1	0.000	
28	 C49	12.962	52.495	84.137	C.2	1	RES1	0.000	
29	 C50	12.197	52.596	85.289	C.2	1	RES1	0.000	
30	 C51	12.325	52.447	93.895	C.3	1	RES1	0.000	
31	 C52	13.221	51.580	92.988	C.3	1	RES1	0.000	
32	 C53	12.937	52.507	95.312	C.3	1	RES1	0.000	
33	 C54	10.980	51.752	94.028	C.3	1	RES1	0.000	
@<TRIPOS>BOND
1 1 24 ar
2 1 27 ar
3 6 18 1
4 6 19 1
5 7 15 1
6 8 25 ar
7 8 27 ar
8 9 18 2
9 10 11 1
10 2 11 1
11 3 11 2
12 2 12 1
13 12 13 1
14 12 30 1
15 4 13 1
16 5 13 2
17 4 14 1
18 14 15 1
19 15 16 1
20 16 17 1
21 4 17 1
22 17 18 1
23 19 20 1
24 20 21 ar
25 20 29 ar
26 21 22 ar
27 22 23 ar
28 23 24 1
29 23 28 ar
30 24 25 ar
31 25 26 1
32 28 29 ar
33 30 31 1
34 30 32 1
35 30 33 1
@<TRIPOS>SUBSTRUCTURE
1	RES1	1	GROUP	1 ****	RES
