# created with PyMOL 2.5.2
@<TRIPOS>MOLECULE
BRD4_7BQU_E3ligase
19 21 1                 
SMALL
USER_CHARGES
@<TRIPOS>ATOM
1	  O4	27.381	17.215	11.954	O.2	1	RES1	0.000	
2	  O5	26.357	20.284	17.897	O.2	1	RES1	0.000	
3	  N6	25.397	17.697	13.138	N.2	1	RES1	0.000	
4	  O6	23.731	19.632	14.286	O.2	1	RES1	0.000	
5	  N7	25.078	19.877	16.066	N.pl3	1	RES1	0.000	
6	  O7	23.115	17.696	13.638	O.2	1	RES1	0.000	
7	 C19	25.568	15.522	10.264	C.2	1	RES1	0.000	
8	 C20	24.476	14.813	9.661	C.2	1	RES1	0.000	
9	 C21	23.183	14.976	10.169	C.2	1	RES1	0.000	
10	 C22	22.931	15.779	11.305	C.2	1	RES1	0.000	
11	 C23	24.034	16.446	11.851	C.2	1	RES1	0.000	
12	 C24	25.282	16.302	11.373	C.2	1	RES1	0.000	
13	 C25	26.192	17.131	12.174	C.2	1	RES1	0.000	
14	 C26	25.935	18.630	14.139	C.3	1	RES1	0.000	
15	 C27	26.842	17.964	15.177	C.3	1	RES1	0.000	
16	 C28	27.365	18.995	16.132	C.3	1	RES1	0.000	
17	 C29	26.238	19.774	16.787	C.2	1	RES1	0.000	
18	 C30	24.808	19.374	14.829	C.2	1	RES1	0.000	
19	 C31	24.082	17.350	13.001	C.2	1	RES1	0.000	
@<TRIPOS>BOND
1 7 8 ar
2 7 12 ar
3 8 9 ar
4 9 10 ar
5 10 11 ar
6 11 12 ar
7 11 19 ar
8 12 13 ar
9 1 13 2
10 3 13 ar
11 3 14 1
12 14 15 1
13 14 18 1
14 15 16 1
15 16 17 1
16 2 17 2
17 5 17 1
18 4 18 2
19 5 18 1
20 3 19 ar
21 6 19 2
@<TRIPOS>SUBSTRUCTURE
1	RES1	1	GROUP	1 ****	RES
