# created with PyMOL 2.5.2
@<TRIPOS>MOLECULE
BRAF_4W9H_E3ligase
33 35 1                 
SMALL
USER_CHARGES
@<TRIPOS>ATOM
1	  S2	15.545	51.447	82.157	S.2	1	RES1	0.000	
2	  N8	11.151	54.593	94.085	N.pl3	1	RES1	0.000	
3	  N9	12.544	54.101	90.827	N.pl3	1	RES1	0.000	
4	  O9	12.548	56.378	94.617	O.2	1	RES1	0.000	
5	 N10	11.112	53.047	87.636	N.pl3	1	RES1	0.000	
6	 O10	10.422	53.778	91.604	O.2	1	RES1	0.000	
7	 N11	14.605	50.427	80.006	N.2	1	RES1	0.000	
8	 O11	14.216	56.540	90.245	O.3	1	RES1	0.000	
9	 O12	12.262	51.794	89.199	O.2	1	RES1	0.000	
10	 C33	10.268	56.396	95.422	C.3	1	RES1	0.000	
11	 C34	11.454	55.816	94.669	C.2	1	RES1	0.000	
12	 C35	12.115	53.827	93.293	C.3	1	RES1	0.000	
13	 C36	11.592	53.893	91.848	C.2	1	RES1	0.000	
14	 C37	13.943	54.283	91.162	C.3	1	RES1	0.000	
15	 C38	14.474	55.106	90.018	C.3	1	RES1	0.000	
16	 C39	13.703	54.659	88.807	C.3	1	RES1	0.000	
17	 C40	12.332	54.239	89.388	C.3	1	RES1	0.000	
18	 C41	11.923	52.916	88.759	C.2	1	RES1	0.000	
19	 C42	10.628	51.893	86.911	C.3	1	RES1	0.000	
20	 C43	11.480	51.655	85.678	C.2	1	RES1	0.000	
21	 C44	12.310	52.668	85.169	C.2	1	RES1	0.000	
22	 C45	13.077	52.455	84.021	C.2	1	RES1	0.000	
23	 C46	13.047	51.213	83.351	C.2	1	RES1	0.000	
24	 C47	13.847	51.028	82.167	C.2	1	RES1	0.000	
25	 C48	13.554	50.450	80.915	C.2	1	RES1	0.000	
26	 C49	12.261	49.899	80.471	C.3	1	RES1	0.000	
27	 C50	15.687	50.923	80.535	C.2	1	RES1	0.000	
28	 C51	12.224	50.203	83.842	C.2	1	RES1	0.000	
29	 C52	11.437	50.446	84.982	C.2	1	RES1	0.000	
30	 C53	12.329	52.362	93.814	C.3	1	RES1	0.000	
31	 C54	13.033	52.411	95.183	C.3	1	RES1	0.000	
32	 C55	13.224	51.584	92.863	C.3	1	RES1	0.000	
33	 C56	11.023	51.579	93.988	C.3	1	RES1	0.000	
@<TRIPOS>BOND
1 1 24 ar
2 1 27 ar
3 5 18 1
4 5 19 1
5 6 13 2
6 7 25 ar
7 7 27 ar
8 8 15 1
9 9 18 2
10 10 11 1
11 2 11 1
12 4 11 2
13 2 12 1
14 12 13 1
15 12 30 1
16 3 13 1
17 3 14 1
18 14 15 1
19 15 16 1
20 16 17 1
21 3 17 1
22 17 18 1
23 19 20 1
24 20 21 ar
25 20 29 ar
26 21 22 ar
27 22 23 ar
28 23 24 1
29 23 28 ar
30 24 25 ar
31 25 26 1
32 28 29 ar
33 30 31 1
34 30 32 1
35 30 33 1
@<TRIPOS>SUBSTRUCTURE
1	RES1	1	GROUP	1 ****	RES
