# created with PyMOL 2.5.2
@<TRIPOS>MOLECULE
PARP1_4W9H_E3ligase
33 35 1                 
SMALL
USER_CHARGES
@<TRIPOS>ATOM
1	  C1	12.239	49.862	80.536	C.3	1	RES1	0.000	
2	  N1	11.186	53.102	87.621	N.pl3	1	RES1	0.000	
3	  O1	12.366	51.819	89.137	O.2	1	RES1	0.000	
4	  S1	15.542	51.475	82.074	S.2	1	RES1	0.000	
5	  C2	13.545	50.413	80.939	C.2	1	RES1	0.000	
6	  N2	12.607	54.078	90.859	N.pl3	1	RES1	0.000	
7	  O2	14.179	56.562	90.263	O.3	1	RES1	0.000	
8	  C3	13.891	50.990	82.137	C.2	1	RES1	0.000	
9	  N3	11.040	54.532	94.051	N.pl3	1	RES1	0.000	
10	  O3	10.472	53.641	91.544	O.2	1	RES1	0.000	
11	  C4	13.093	51.239	83.369	C.2	1	RES1	0.000	
12	  O4	12.327	56.385	94.659	O.2	1	RES1	0.000	
13	  C5	13.137	52.478	84.008	C.2	1	RES1	0.000	
14	  C6	12.356	52.724	85.143	C.2	1	RES1	0.000	
15	  C7	11.510	51.736	85.641	C.2	1	RES1	0.000	
16	  C8	10.690	51.981	86.879	C.3	1	RES1	0.000	
17	  C9	11.982	52.922	88.753	C.2	1	RES1	0.000	
18	 C10	12.414	54.228	89.418	C.3	1	RES1	0.000	
19	 N10	14.563	50.330	80.001	N.2	1	RES1	0.000	
20	 C11	13.793	54.662	88.897	C.3	1	RES1	0.000	
21	 C12	14.525	55.156	90.084	C.3	1	RES1	0.000	
22	 C13	13.978	54.335	91.225	C.3	1	RES1	0.000	
23	 C14	11.622	53.848	91.847	C.2	1	RES1	0.000	
24	 C15	12.081	53.825	93.322	C.3	1	RES1	0.000	
25	 C16	11.253	55.785	94.657	C.2	1	RES1	0.000	
26	 C17	10.016	56.334	95.306	C.3	1	RES1	0.000	
27	 C50	12.326	52.386	93.868	C.3	1	RES1	0.000	
28	 C51	12.834	52.351	95.295	C.3	1	RES1	0.000	
29	 C52	13.379	51.667	92.977	C.3	1	RES1	0.000	
30	 C53	11.048	51.547	93.781	C.3	1	RES1	0.000	
31	 C54	11.476	50.491	84.999	C.2	1	RES1	0.000	
32	 C55	12.252	50.266	83.862	C.2	1	RES1	0.000	
33	 C56	15.650	50.866	80.489	C.2	1	RES1	0.000	
@<TRIPOS>BOND
1 1 5 1
2 2 16 1
3 2 17 1
4 3 17 2
5 4 8 ar
6 4 33 ar
7 5 8 ar
8 8 11 1
9 11 13 ar
10 11 32 ar
11 13 14 ar
12 14 15 ar
13 15 16 1
14 6 18 1
15 17 18 1
16 18 20 1
17 5 19 ar
18 19 33 ar
19 20 21 1
20 7 21 1
21 21 22 1
22 6 22 1
23 6 23 1
24 10 23 2
25 23 24 1
26 9 24 1
27 24 27 1
28 9 25 1
29 12 25 2
30 25 26 1
31 27 28 1
32 27 29 1
33 27 30 1
34 15 31 ar
35 31 32 ar
@<TRIPOS>SUBSTRUCTURE
1	RES1	1	GROUP	1 ****	RES
