# created with PyMOL 2.5.2
@<TRIPOS>MOLECULE
PARP1_4W9H_E3ligase
33 35 1                 
SMALL
USER_CHARGES
@<TRIPOS>ATOM
1	  C1	12.286	49.819	80.499	C.3	1	RES1	0.000	
2	  N1	11.254	53.040	87.740	N.pl3	1	RES1	0.000	
3	  O1	12.399	51.810	89.302	O.2	1	RES1	0.000	
4	  S1	15.512	51.534	82.146	S.2	1	RES1	0.000	
5	  C2	13.566	50.428	80.911	C.2	1	RES1	0.000	
6	  N2	12.754	54.046	90.884	N.pl3	1	RES1	0.000	
7	  O2	14.213	56.618	90.269	O.3	1	RES1	0.000	
8	  C3	13.854	51.020	82.148	C.2	1	RES1	0.000	
9	  N3	10.943	54.512	93.940	N.pl3	1	RES1	0.000	
10	  O3	10.533	53.643	91.350	O.2	1	RES1	0.000	
11	  C4	13.023	51.272	83.331	C.2	1	RES1	0.000	
12	  O4	12.192	56.274	94.754	O.2	1	RES1	0.000	
13	  C5	12.214	50.288	83.848	C.2	1	RES1	0.000	
14	  C6	11.459	50.478	85.018	C.2	1	RES1	0.000	
15	  C7	11.543	51.686	85.698	C.2	1	RES1	0.000	
16	  C8	10.734	51.908	86.981	C.3	1	RES1	0.000	
17	  C9	12.075	52.906	88.827	C.2	1	RES1	0.000	
18	 C10	12.520	54.213	89.439	C.3	1	RES1	0.000	
19	 N10	14.607	50.385	80.019	N.2	1	RES1	0.000	
20	 C11	13.845	54.692	88.867	C.3	1	RES1	0.000	
21	 C12	14.619	55.268	90.061	C.3	1	RES1	0.000	
22	 C13	14.114	54.414	91.220	C.3	1	RES1	0.000	
23	 C14	11.686	53.843	91.758	C.2	1	RES1	0.000	
24	 C15	12.017	53.807	93.256	C.3	1	RES1	0.000	
25	 C16	11.133	55.754	94.604	C.2	1	RES1	0.000	
26	 C17	9.855	56.319	95.147	C.3	1	RES1	0.000	
27	 C52	12.233	52.379	93.822	C.3	1	RES1	0.000	
28	 C53	12.532	52.369	95.339	C.3	1	RES1	0.000	
29	 C54	13.454	51.695	93.123	C.3	1	RES1	0.000	
30	 C55	11.030	51.504	93.535	C.3	1	RES1	0.000	
31	 C56	12.382	52.682	85.219	C.2	1	RES1	0.000	
32	 C57	13.122	52.464	84.053	C.2	1	RES1	0.000	
33	 C58	15.670	50.945	80.538	C.2	1	RES1	0.000	
@<TRIPOS>BOND
1 1 5 1
2 2 16 1
3 2 17 1
4 3 17 2
5 4 8 ar
6 4 33 ar
7 5 8 ar
8 8 11 1
9 11 13 ar
10 11 32 ar
11 13 14 ar
12 14 15 ar
13 15 16 1
14 6 18 1
15 17 18 1
16 18 20 1
17 5 19 ar
18 19 33 ar
19 20 21 1
20 7 21 1
21 21 22 1
22 6 22 1
23 6 23 1
24 10 23 2
25 23 24 1
26 9 24 1
27 24 27 1
28 9 25 1
29 12 25 2
30 25 26 1
31 27 28 1
32 27 29 1
33 27 30 1
34 15 31 ar
35 31 32 ar
@<TRIPOS>SUBSTRUCTURE
1	RES1	1	GROUP	1 ****	RES
