# created with PyMOL 2.5.2
@<TRIPOS>MOLECULE
BTK_4W9F_E3ligase
29 31 1                 
SMALL
USER_CHARGES
@<TRIPOS>ATOM
1	  C1	-3.292	34.577	10.532	C.3	1	RES1	0.000	
2	  N1	-6.630	35.505	3.372	N.pl3	1	RES1	0.000	
3	  O1	-5.286	34.281	1.973	O.2	1	RES1	0.000	
4	  S1	-4.896	31.252	8.930	S.2	1	RES1	0.000	
5	  C2	-3.857	33.253	10.113	C.2	1	RES1	0.000	
6	  N2	-7.430	33.793	0.186	N.pl3	1	RES1	0.000	
7	  O2	-10.082	32.484	0.796	O.3	1	RES1	0.000	
8	  C3	-4.489	32.917	8.909	C.2	1	RES1	0.000	
9	  O3	-6.877	35.937	-0.426	O.2	1	RES1	0.000	
10	  C4	-4.789	33.736	7.736	C.2	1	RES1	0.000	
11	  C5	-6.010	33.670	7.099	C.2	1	RES1	0.000	
12	  C6	-6.295	34.421	5.946	C.2	1	RES1	0.000	
13	  C7	-5.326	35.278	5.429	C.2	1	RES1	0.000	
14	  C8	-5.580	36.054	4.158	C.3	1	RES1	0.000	
15	  C9	-6.416	34.606	2.349	C.2	1	RES1	0.000	
16	 C10	-7.649	34.148	1.606	C.3	1	RES1	0.000	
17	 C11	-8.188	32.851	2.215	C.3	1	RES1	0.000	
18	 C12	-8.756	32.085	1.069	C.3	1	RES1	0.000	
19	 C13	-7.852	32.450	-0.092	C.3	1	RES1	0.000	
20	 C14	-7.069	34.781	-0.759	C.2	1	RES1	0.000	
21	 N14	-3.753	32.225	11.048	N.2	1	RES1	0.000	
22	 C15	-6.973	34.289	-2.199	C.3	1	RES1	0.000	
23	 C59	-5.545	34.264	-2.856	C.3	1	RES1	0.000	
24	 C60	-4.961	35.662	-3.024	C.3	1	RES1	0.000	
25	 C61	-5.686	33.643	-4.219	C.3	1	RES1	0.000	
26	 C62	-4.606	33.397	-2.001	C.3	1	RES1	0.000	
27	 C63	-4.079	35.329	6.042	C.2	1	RES1	0.000	
28	 C64	-3.812	34.551	7.195	C.2	1	RES1	0.000	
29	 C65	-4.271	31.113	10.534	C.2	1	RES1	0.000	
@<TRIPOS>BOND
1 1 5 1
2 2 14 1
3 2 15 1
4 3 15 2
5 4 8 ar
6 4 29 ar
7 5 8 ar
8 8 10 1
9 10 11 ar
10 10 28 ar
11 11 12 ar
12 12 13 ar
13 13 14 1
14 6 16 1
15 15 16 1
16 16 17 1
17 17 18 1
18 7 18 1
19 18 19 1
20 6 19 1
21 6 20 1
22 9 20 2
23 20 22 1
24 5 21 ar
25 21 29 ar
26 22 23 1
27 23 24 1
28 23 25 1
29 23 26 1
30 13 27 ar
31 27 28 ar
@<TRIPOS>SUBSTRUCTURE
1	RES1	1	GROUP	1 ****	RES
