# created with PyMOL 2.5.2
@<TRIPOS>MOLECULE
BTK_4W9F_E3ligase
29 31 1                 
SMALL
USER_CHARGES
@<TRIPOS>ATOM
1	  C1	-3.337	34.486	10.511	C.3	1	RES1	0.000	
2	  N1	-6.528	35.565	3.336	N.pl3	1	RES1	0.000	
3	  O1	-5.211	34.363	1.905	O.2	1	RES1	0.000	
4	  S1	-5.024	31.254	8.860	S.2	1	RES1	0.000	
5	  C2	-3.971	33.208	10.090	C.2	1	RES1	0.000	
6	  N2	-7.412	33.793	0.241	N.pl3	1	RES1	0.000	
7	  O2	-9.979	32.350	0.928	O.3	1	RES1	0.000	
8	  C3	-4.542	32.893	8.860	C.2	1	RES1	0.000	
9	  O3	-7.003	35.930	-0.422	O.2	1	RES1	0.000	
10	  C4	-4.761	33.733	7.663	C.2	1	RES1	0.000	
11	  C5	-5.985	33.673	6.981	C.2	1	RES1	0.000	
12	  C6	-6.205	34.453	5.874	C.2	1	RES1	0.000	
13	  C7	-5.240	35.325	5.402	C.2	1	RES1	0.000	
14	  C8	-5.468	36.143	4.142	C.3	1	RES1	0.000	
15	  C9	-6.330	34.671	2.328	C.2	1	RES1	0.000	
16	 C10	-7.604	34.159	1.635	C.3	1	RES1	0.000	
17	 C11	-8.076	32.875	2.325	C.3	1	RES1	0.000	
18	 C12	-8.604	32.034	1.197	C.3	1	RES1	0.000	
19	 C13	-7.723	32.385	-0.013	C.3	1	RES1	0.000	
20	 C14	-7.141	34.779	-0.726	C.2	1	RES1	0.000	
21	 N14	-3.901	32.157	11.002	N.2	1	RES1	0.000	
22	 C15	-7.035	34.256	-2.165	C.3	1	RES1	0.000	
23	 C55	-5.641	34.264	-2.822	C.3	1	RES1	0.000	
24	 C56	-5.088	35.667	-3.016	C.3	1	RES1	0.000	
25	 C57	-5.756	33.585	-4.190	C.3	1	RES1	0.000	
26	 C58	-4.620	33.433	-1.980	C.3	1	RES1	0.000	
27	 C59	-4.009	35.411	6.085	C.2	1	RES1	0.000	
28	 C60	-3.801	34.626	7.185	C.2	1	RES1	0.000	
29	 C61	-4.460	31.085	10.444	C.2	1	RES1	0.000	
@<TRIPOS>BOND
1 1 5 1
2 2 14 1
3 2 15 1
4 3 15 2
5 4 8 ar
6 4 29 ar
7 5 8 ar
8 8 10 1
9 10 11 ar
10 10 28 ar
11 11 12 ar
12 12 13 ar
13 13 14 1
14 6 16 1
15 15 16 1
16 16 17 1
17 17 18 1
18 7 18 1
19 18 19 1
20 6 19 1
21 6 20 1
22 9 20 2
23 20 22 1
24 5 21 ar
25 21 29 ar
26 22 23 1
27 23 24 1
28 23 25 1
29 23 26 1
30 13 27 ar
31 27 28 ar
@<TRIPOS>SUBSTRUCTURE
1	RES1	1	GROUP	1 ****	RES
