# created with PyMOL 2.5.2
@<TRIPOS>MOLECULE
BTK_4W9F_E3ligase
29 31 1                 
SMALL
USER_CHARGES
@<TRIPOS>ATOM
1	  C1	-3.362	34.496	10.577	C.3	1	RES1	0.000	
2	  N1	-6.543	35.583	3.339	N.pl3	1	RES1	0.000	
3	  O1	-5.243	34.375	1.871	O.2	1	RES1	0.000	
4	  S1	-5.007	31.276	8.836	S.2	1	RES1	0.000	
5	  C2	-3.951	33.178	10.105	C.2	1	RES1	0.000	
6	  N2	-7.410	33.781	0.239	N.pl3	1	RES1	0.000	
7	  O2	-9.976	32.386	0.977	O.3	1	RES1	0.000	
8	  C3	-4.524	32.927	8.876	C.2	1	RES1	0.000	
9	  O3	-6.970	35.923	-0.431	O.2	1	RES1	0.000	
10	  C4	-4.724	33.746	7.682	C.2	1	RES1	0.000	
11	  C5	-5.980	33.683	7.024	C.2	1	RES1	0.000	
12	  C6	-6.229	34.468	5.890	C.2	1	RES1	0.000	
13	  C7	-5.255	35.339	5.375	C.2	1	RES1	0.000	
14	  C8	-5.484	36.136	4.125	C.3	1	RES1	0.000	
15	  C9	-6.346	34.674	2.327	C.2	1	RES1	0.000	
16	 C10	-7.613	34.153	1.642	C.3	1	RES1	0.000	
17	 C11	-8.048	32.827	2.313	C.3	1	RES1	0.000	
18	 C12	-8.628	32.004	1.182	C.3	1	RES1	0.000	
19	 C13	-7.768	32.395	0.001	C.3	1	RES1	0.000	
20	 C14	-7.135	34.764	-0.721	C.2	1	RES1	0.000	
21	 N14	-3.933	32.129	10.992	N.2	1	RES1	0.000	
22	 C15	-7.020	34.244	-2.173	C.3	1	RES1	0.000	
23	 C53	-5.612	34.256	-2.826	C.3	1	RES1	0.000	
24	 C54	-5.073	35.695	-3.023	C.3	1	RES1	0.000	
25	 C55	-5.737	33.602	-4.191	C.3	1	RES1	0.000	
26	 C56	-4.639	33.434	-1.984	C.3	1	RES1	0.000	
27	 C57	-4.020	35.392	6.037	C.2	1	RES1	0.000	
28	 C58	-3.772	34.608	7.165	C.2	1	RES1	0.000	
29	 C59	-4.453	31.081	10.433	C.2	1	RES1	0.000	
@<TRIPOS>BOND
1 1 5 1
2 2 14 1
3 2 15 1
4 3 15 2
5 4 8 ar
6 4 29 ar
7 5 8 ar
8 8 10 1
9 10 11 ar
10 10 28 ar
11 11 12 ar
12 12 13 ar
13 13 14 1
14 6 16 1
15 15 16 1
16 16 17 1
17 17 18 1
18 7 18 1
19 18 19 1
20 6 19 1
21 6 20 1
22 9 20 2
23 20 22 1
24 5 21 ar
25 21 29 ar
26 22 23 1
27 23 24 1
28 23 25 1
29 23 26 1
30 13 27 ar
31 27 28 ar
@<TRIPOS>SUBSTRUCTURE
1	RES1	1	GROUP	1 ****	RES
