# created with PyMOL 2.5.2
@<TRIPOS>MOLECULE
BTK_4W9F_E3ligase
29 31 1                 
SMALL
USER_CHARGES
@<TRIPOS>ATOM
1	  C1	-3.328	34.576	10.555	C.3	1	RES1	0.000	
2	  N1	-6.604	35.503	3.366	N.pl3	1	RES1	0.000	
3	  O1	-5.321	34.164	2.044	O.2	1	RES1	0.000	
4	  S1	-4.972	31.259	8.953	S.2	1	RES1	0.000	
5	  C2	-3.858	33.243	10.130	C.2	1	RES1	0.000	
6	  N2	-7.420	33.852	0.246	N.pl3	1	RES1	0.000	
7	  O2	-10.047	32.403	0.570	O.3	1	RES1	0.000	
8	  C3	-4.481	32.924	8.896	C.2	1	RES1	0.000	
9	  O3	-6.970	35.977	-0.484	O.2	1	RES1	0.000	
10	  C4	-4.741	33.735	7.721	C.2	1	RES1	0.000	
11	  C5	-3.750	34.597	7.182	C.2	1	RES1	0.000	
12	  C6	-4.012	35.332	6.035	C.2	1	RES1	0.000	
13	  C7	-5.266	35.264	5.362	C.2	1	RES1	0.000	
14	  C8	-5.502	36.044	4.130	C.3	1	RES1	0.000	
15	  C9	-6.421	34.586	2.343	C.2	1	RES1	0.000	
16	 C10	-7.741	34.203	1.620	C.3	1	RES1	0.000	
17	 C11	-8.407	32.973	2.234	C.3	1	RES1	0.000	
18	 C12	-8.732	32.070	1.064	C.3	1	RES1	0.000	
19	 C13	-7.671	32.414	0.025	C.3	1	RES1	0.000	
20	 C14	-7.132	34.789	-0.746	C.2	1	RES1	0.000	
21	 N14	-3.768	32.203	11.016	N.2	1	RES1	0.000	
22	 C15	-6.976	34.251	-2.161	C.3	1	RES1	0.000	
23	 C51	-5.560	34.257	-2.788	C.3	1	RES1	0.000	
24	 C52	-5.063	35.700	-2.993	C.3	1	RES1	0.000	
25	 C53	-5.648	33.593	-4.187	C.3	1	RES1	0.000	
26	 C54	-4.567	33.467	-1.951	C.3	1	RES1	0.000	
27	 C55	-6.209	34.405	5.890	C.2	1	RES1	0.000	
28	 C56	-5.975	33.648	7.051	C.2	1	RES1	0.000	
29	 C57	-4.311	31.123	10.535	C.2	1	RES1	0.000	
@<TRIPOS>BOND
1 1 5 1
2 2 14 1
3 2 15 1
4 3 15 2
5 4 8 ar
6 4 29 ar
7 5 8 ar
8 8 10 1
9 10 11 ar
10 10 28 ar
11 11 12 ar
12 12 13 ar
13 13 14 1
14 6 16 1
15 15 16 1
16 16 17 1
17 17 18 1
18 7 18 1
19 18 19 1
20 6 19 1
21 6 20 1
22 9 20 2
23 20 22 1
24 5 21 ar
25 21 29 ar
26 22 23 1
27 23 24 1
28 23 25 1
29 23 26 1
30 13 27 ar
31 27 28 ar
@<TRIPOS>SUBSTRUCTURE
1	RES1	1	GROUP	1 ****	RES
