# created with PyMOL 2.5.2
@<TRIPOS>MOLECULE
CDK6_5NVV_E3ligase
34 36 1                 
SMALL
USER_CHARGES
@<TRIPOS>ATOM
1	  S1	15.878	51.604	82.382	S.2	1	RES1	0.000	
2	  O5	10.457	57.441	96.055	O.3	1	RES1	0.000	
3	  N6	11.401	54.417	94.203	N.pl3	1	RES1	0.000	
4	  O6	12.625	56.271	94.840	O.2	1	RES1	0.000	
5	  N7	13.167	54.164	91.062	N.pl3	1	RES1	0.000	
6	  O7	11.009	53.604	91.587	O.2	1	RES1	0.000	
7	  N8	11.553	53.245	87.866	N.pl3	1	RES1	0.000	
8	  O8	14.404	56.859	90.377	O.3	1	RES1	0.000	
9	  N9	14.987	50.428	80.288	N.2	1	RES1	0.000	
10	  O9	12.760	51.948	89.339	O.2	1	RES1	0.000	
11	 C25	10.304	56.171	95.454	C.3	1	RES1	0.000	
12	 C26	11.572	55.667	94.786	C.2	1	RES1	0.000	
13	 C27	12.525	53.741	93.495	C.3	1	RES1	0.000	
14	 C28	12.170	53.847	92.002	C.2	1	RES1	0.000	
15	 C29	14.503	54.666	91.344	C.3	1	RES1	0.000	
16	 C30	14.851	55.523	90.167	C.3	1	RES1	0.000	
17	 C31	14.117	54.883	89.006	C.3	1	RES1	0.000	
18	 C32	12.839	54.321	89.635	C.3	1	RES1	0.000	
19	 C33	12.438	53.040	88.908	C.2	1	RES1	0.000	
20	 C34	10.996	52.123	87.106	C.3	1	RES1	0.000	
21	 C35	11.812	51.879	85.843	C.2	1	RES1	0.000	
22	 C36	11.735	50.682	85.184	C.2	1	RES1	0.000	
23	 C37	12.505	50.427	84.052	C.2	1	RES1	0.000	
24	 C38	13.394	51.396	83.555	C.2	1	RES1	0.000	
25	 C39	14.228	51.125	82.396	C.2	1	RES1	0.000	
26	 C40	13.954	50.496	81.206	C.2	1	RES1	0.000	
27	 C41	12.659	49.889	80.768	C.3	1	RES1	0.000	
28	 C42	16.050	50.989	80.795	C.2	1	RES1	0.000	
29	 C43	13.458	52.609	84.254	C.2	1	RES1	0.000	
30	 C44	12.706	52.843	85.371	C.2	1	RES1	0.000	
31	 C45	12.778	52.276	93.991	C.3	1	RES1	0.000	
32	 C46	13.410	52.273	95.371	C.3	1	RES1	0.000	
33	 C47	13.687	51.453	93.033	C.3	1	RES1	0.000	
34	 C48	11.417	51.550	94.082	C.3	1	RES1	0.000	
@<TRIPOS>BOND
1 1 25 ar
2 1 28 ar
3 2 11 1
4 11 12 1
5 3 12 1
6 4 12 2
7 3 13 1
8 13 14 1
9 13 31 1
10 5 14 1
11 6 14 2
12 5 15 1
13 15 16 1
14 8 16 1
15 16 17 1
16 17 18 1
17 5 18 1
18 18 19 1
19 7 19 1
20 10 19 2
21 7 20 1
22 20 21 1
23 21 22 ar
24 21 30 ar
25 22 23 ar
26 23 24 ar
27 24 25 1
28 24 29 ar
29 25 26 ar
30 9 26 ar
31 26 27 1
32 9 28 ar
33 29 30 ar
34 31 32 1
35 31 33 1
36 31 34 1
@<TRIPOS>SUBSTRUCTURE
1	RES1	1	GROUP	1 ****	RES
