# created with PyMOL 2.5.2
@<TRIPOS>MOLECULE
ALK_5NVV_E3ligase
35 37 1                 
SMALL
USER_CHARGES
@<TRIPOS>ATOM
1	  S2	15.907	51.598	82.417	S.2	1	RES1	0.000	
2	  N6	11.439	54.412	94.188	N.pl3	1	RES1	0.000	
3	  O6	10.474	57.425	96.096	O.3	1	RES1	0.000	
4	  N7	13.166	54.151	91.057	N.pl3	1	RES1	0.000	
5	  O7	12.651	56.309	94.849	O.2	1	RES1	0.000	
6	  N8	11.537	53.211	87.883	N.pl3	1	RES1	0.000	
7	  O8	11.001	53.626	91.616	O.2	1	RES1	0.000	
8	  N9	14.983	50.496	80.269	N.2	1	RES1	0.000	
9	  O9	14.344	56.836	90.230	O.3	1	RES1	0.000	
10	 O10	12.726	51.906	89.330	O.2	1	RES1	0.000	
11	 C31	10.296	56.193	95.398	C.3	1	RES1	0.000	
12	 C32	11.580	55.673	94.789	C.2	1	RES1	0.000	
13	 C33	12.539	53.726	93.470	C.3	1	RES1	0.000	
14	 C34	12.154	53.843	91.989	C.2	1	RES1	0.000	
15	 C35	14.474	54.677	91.351	C.3	1	RES1	0.000	
16	 C36	14.862	55.504	90.124	C.3	1	RES1	0.000	
17	 C37	14.143	54.803	89.005	C.3	1	RES1	0.000	
18	 C38	12.856	54.322	89.643	C.3	1	RES1	0.000	
19	 C39	12.410	53.012	88.922	C.2	1	RES1	0.000	
20	 C40	10.956	52.118	87.123	C.3	1	RES1	0.000	
21	 C41	9.457	52.302	86.857	C.3	1	RES1	0.000	
22	 C42	11.796	51.886	85.857	C.2	1	RES1	0.000	
23	 C43	11.715	50.667	85.171	C.2	1	RES1	0.000	
24	 C44	12.493	50.429	84.058	C.2	1	RES1	0.000	
25	 C45	13.457	51.356	83.592	C.2	1	RES1	0.000	
26	 C46	14.262	51.109	82.430	C.2	1	RES1	0.000	
27	 C47	13.937	50.547	81.181	C.2	1	RES1	0.000	
28	 C48	12.640	49.947	80.745	C.3	1	RES1	0.000	
29	 C49	16.050	51.023	80.810	C.2	1	RES1	0.000	
30	 C50	13.510	52.581	84.296	C.2	1	RES1	0.000	
31	 C51	12.713	52.855	85.392	C.2	1	RES1	0.000	
32	 C52	12.777	52.302	93.985	C.3	1	RES1	0.000	
33	 C53	13.672	51.455	93.060	C.3	1	RES1	0.000	
34	 C54	13.408	52.336	95.369	C.3	1	RES1	0.000	
35	 C55	11.424	51.536	94.137	C.3	1	RES1	0.000	
@<TRIPOS>BOND
1 1 26 ar
2 1 29 ar
3 10 19 2
4 3 11 1
5 11 12 1
6 2 12 1
7 5 12 2
8 2 13 1
9 13 14 1
10 13 32 1
11 4 14 1
12 7 14 2
13 4 15 1
14 15 16 1
15 9 16 1
16 16 17 1
17 17 18 1
18 4 18 1
19 18 19 1
20 6 19 1
21 6 20 1
22 20 21 1
23 20 22 1
24 22 23 ar
25 22 31 ar
26 23 24 ar
27 24 25 ar
28 25 26 1
29 25 30 ar
30 26 27 ar
31 8 27 ar
32 27 28 1
33 8 29 ar
34 30 31 ar
35 32 33 1
36 32 34 1
37 32 35 1
@<TRIPOS>SUBSTRUCTURE
1	RES1	1	GROUP	1 ****	RES
