# created with PyMOL 2.5.2
@<TRIPOS>MOLECULE
ALK_4W9H_E3ligase
34 36 1                 
SMALL
USER_CHARGES
@<TRIPOS>ATOM
1	  S2	15.546	51.582	82.074	S.2	1	RES1	0.000	
2	  O5	12.434	56.368	94.680	O.2	1	RES1	0.000	
3	  N6	11.077	54.621	94.040	N.pl3	1	RES1	0.000	
4	  O6	10.512	53.748	91.509	O.2	1	RES1	0.000	
5	  N7	12.725	53.998	90.875	N.pl3	1	RES1	0.000	
6	  O7	14.114	56.539	90.107	O.3	1	RES1	0.000	
7	  N8	11.108	52.943	87.686	N.pl3	1	RES1	0.000	
8	  O8	12.364	51.675	89.150	O.2	1	RES1	0.000	
9	  N9	14.597	50.520	79.951	N.2	1	RES1	0.000	
10	 C30	10.120	56.493	95.283	C.3	1	RES1	0.000	
11	 C31	11.336	55.854	94.652	C.2	1	RES1	0.000	
12	 C32	12.085	53.852	93.342	C.3	1	RES1	0.000	
13	 C33	11.693	53.875	91.843	C.2	1	RES1	0.000	
14	 C34	14.080	54.348	91.161	C.3	1	RES1	0.000	
15	 C35	14.492	55.170	89.961	C.3	1	RES1	0.000	
16	 C36	13.759	54.532	88.821	C.3	1	RES1	0.000	
17	 C37	12.425	54.070	89.455	C.3	1	RES1	0.000	
18	 C38	11.943	52.752	88.796	C.2	1	RES1	0.000	
19	 C39	10.636	51.824	86.896	C.3	1	RES1	0.000	
20	 C40	9.172	52.011	86.520	C.3	1	RES1	0.000	
21	 C41	11.520	51.609	85.661	C.2	1	RES1	0.000	
22	 C42	11.503	50.407	84.963	C.2	1	RES1	0.000	
23	 C43	12.279	50.215	83.852	C.2	1	RES1	0.000	
24	 C44	13.109	51.249	83.340	C.2	1	RES1	0.000	
25	 C45	13.900	51.075	82.146	C.2	1	RES1	0.000	
26	 C46	13.593	50.524	80.901	C.2	1	RES1	0.000	
27	 C47	12.299	49.920	80.502	C.3	1	RES1	0.000	
28	 C48	15.676	51.062	80.475	C.2	1	RES1	0.000	
29	 C49	13.108	52.443	84.066	C.2	1	RES1	0.000	
30	 C50	12.299	52.629	85.178	C.2	1	RES1	0.000	
31	 C51	12.228	52.415	93.922	C.3	1	RES1	0.000	
32	 C52	12.685	52.451	95.384	C.3	1	RES1	0.000	
33	 C53	13.257	51.577	93.101	C.3	1	RES1	0.000	
34	 C54	10.867	51.669	93.860	C.3	1	RES1	0.000	
@<TRIPOS>BOND
1 1 25 ar
2 1 28 ar
3 10 11 1
4 2 11 2
5 3 11 1
6 3 12 1
7 12 13 1
8 12 31 1
9 4 13 2
10 5 13 1
11 5 14 1
12 14 15 1
13 6 15 1
14 15 16 1
15 16 17 1
16 5 17 1
17 17 18 1
18 7 18 1
19 8 18 2
20 7 19 1
21 19 20 1
22 19 21 1
23 21 22 ar
24 21 30 ar
25 22 23 ar
26 23 24 ar
27 24 25 1
28 24 29 ar
29 25 26 ar
30 9 26 ar
31 26 27 1
32 9 28 ar
33 29 30 ar
34 31 32 1
35 31 33 1
36 31 34 1
@<TRIPOS>SUBSTRUCTURE
1	RES1	1	GROUP	1 ****	RES
