# created with PyMOL 2.5.2
@<TRIPOS>MOLECULE
BRD4_7BQU_E3ligase
19 21 1                 
SMALL
USER_CHARGES
@<TRIPOS>ATOM
1	  O4	27.405	17.216	11.949	O.2	1	RES1	0.000	
2	  O5	26.355	20.319	17.893	O.2	1	RES1	0.000	
3	  N6	25.418	17.671	13.146	N.2	1	RES1	0.000	
4	  O6	23.752	19.632	14.243	O.2	1	RES1	0.000	
5	  N7	25.085	19.907	16.050	N.pl3	1	RES1	0.000	
6	  O7	23.120	17.679	13.658	O.2	1	RES1	0.000	
7	 C19	25.567	15.513	10.224	C.2	1	RES1	0.000	
8	 C20	24.458	14.853	9.651	C.2	1	RES1	0.000	
9	 C21	23.174	14.995	10.165	C.2	1	RES1	0.000	
10	 C22	22.925	15.785	11.285	C.2	1	RES1	0.000	
11	 C23	24.006	16.434	11.866	C.2	1	RES1	0.000	
12	 C24	25.277	16.291	11.336	C.2	1	RES1	0.000	
13	 C25	26.205	17.097	12.164	C.2	1	RES1	0.000	
14	 C26	25.940	18.608	14.170	C.3	1	RES1	0.000	
15	 C27	26.840	17.937	15.211	C.3	1	RES1	0.000	
16	 C28	27.369	19.000	16.183	C.3	1	RES1	0.000	
17	 C29	26.207	19.792	16.821	C.2	1	RES1	0.000	
18	 C30	24.811	19.391	14.812	C.2	1	RES1	0.000	
19	 C31	24.078	17.332	13.008	C.2	1	RES1	0.000	
@<TRIPOS>BOND
1 7 8 ar
2 7 12 ar
3 8 9 ar
4 9 10 ar
5 10 11 ar
6 11 12 ar
7 11 19 ar
8 12 13 ar
9 1 13 2
10 3 13 ar
11 3 14 1
12 14 15 1
13 14 18 1
14 15 16 1
15 16 17 1
16 2 17 2
17 5 17 1
18 4 18 2
19 5 18 1
20 3 19 ar
21 6 19 2
@<TRIPOS>SUBSTRUCTURE
1	RES1	1	GROUP	1 ****	RES
