# created with PyMOL 2.5.2
@<TRIPOS>MOLECULE
BRD2_7BQU_E3ligase
19 21 1                 
SMALL
USER_CHARGES
@<TRIPOS>ATOM
1	  O3	27.395	17.183	11.951	O.2	1	RES1	0.000	
2	  O4	26.316	20.330	17.891	O.2	1	RES1	0.000	
3	  O5	23.747	19.610	14.217	O.2	1	RES1	0.000	
4	  N6	25.444	17.679	13.149	N.2	1	RES1	0.000	
5	  O6	23.128	17.705	13.656	O.2	1	RES1	0.000	
6	  N7	25.072	19.903	16.070	N.pl3	1	RES1	0.000	
7	 C19	25.549	15.523	10.239	C.2	1	RES1	0.000	
8	 C20	24.445	14.858	9.658	C.2	1	RES1	0.000	
9	 C21	23.141	15.007	10.180	C.2	1	RES1	0.000	
10	 C22	22.926	15.801	11.265	C.2	1	RES1	0.000	
11	 C23	24.024	16.437	11.872	C.2	1	RES1	0.000	
12	 C24	25.294	16.313	11.343	C.2	1	RES1	0.000	
13	 C25	26.210	17.098	12.182	C.2	1	RES1	0.000	
14	 C26	25.960	18.595	14.169	C.3	1	RES1	0.000	
15	 C27	26.834	17.953	15.227	C.3	1	RES1	0.000	
16	 C28	27.368	18.998	16.180	C.3	1	RES1	0.000	
17	 C29	26.216	19.780	16.793	C.2	1	RES1	0.000	
18	 C30	24.808	19.369	14.797	C.2	1	RES1	0.000	
19	 C31	24.116	17.310	13.002	C.2	1	RES1	0.000	
@<TRIPOS>BOND
1 7 8 ar
2 7 12 ar
3 8 9 ar
4 9 10 ar
5 10 11 ar
6 11 12 ar
7 11 19 ar
8 12 13 ar
9 1 13 2
10 4 13 ar
11 4 14 1
12 14 15 1
13 14 18 1
14 15 16 1
15 16 17 1
16 2 17 2
17 6 17 1
18 3 18 2
19 6 18 1
20 4 19 ar
21 5 19 2
@<TRIPOS>SUBSTRUCTURE
1	RES1	1	GROUP	1 ****	RES
