# created with PyMOL 2.5.2
@<TRIPOS>MOLECULE
KRAS_5NVV_E3ligase
35 37 1                 
SMALL
USER_CHARGES
@<TRIPOS>ATOM
1	  S1	15.938	51.733	82.400	S.2	1	RES1	0.000	
2	  N6	11.405	54.500	94.207	N.pl3	1	RES1	0.000	
3	  O6	10.585	57.624	95.993	O.3	1	RES1	0.000	
4	  N7	13.079	54.094	91.033	N.pl3	1	RES1	0.000	
5	  O7	12.664	56.340	94.788	O.2	1	RES1	0.000	
6	  N8	11.484	53.030	87.932	N.pl3	1	RES1	0.000	
7	  O8	10.886	53.688	91.637	O.2	1	RES1	0.000	
8	  N9	15.076	50.657	80.263	N.2	1	RES1	0.000	
9	  O9	14.368	56.744	90.461	O.3	1	RES1	0.000	
10	 O10	12.805	51.846	89.335	O.2	1	RES1	0.000	
11	 C20	10.395	56.281	95.502	C.3	1	RES1	0.000	
12	 C21	11.625	55.725	94.781	C.2	1	RES1	0.000	
13	 C22	12.447	53.788	93.467	C.3	1	RES1	0.000	
14	 C23	12.050	53.883	91.966	C.2	1	RES1	0.000	
15	 C24	14.439	54.481	91.318	C.3	1	RES1	0.000	
16	 C25	14.805	55.409	90.176	C.3	1	RES1	0.000	
17	 C26	14.038	54.835	88.981	C.3	1	RES1	0.000	
18	 C27	12.762	54.287	89.605	C.3	1	RES1	0.000	
19	 C28	12.393	52.916	88.959	C.2	1	RES1	0.000	
20	 C29	11.011	51.888	87.158	C.3	1	RES1	0.000	
21	 C30	9.501	52.033	86.811	C.3	1	RES1	0.000	
22	 C31	11.862	51.700	85.900	C.2	1	RES1	0.000	
23	 C32	12.671	52.747	85.451	C.2	1	RES1	0.000	
24	 C33	13.443	52.583	84.296	C.2	1	RES1	0.000	
25	 C34	13.446	51.390	83.563	C.2	1	RES1	0.000	
26	 C35	14.280	51.205	82.387	C.2	1	RES1	0.000	
27	 C36	14.027	50.619	81.153	C.2	1	RES1	0.000	
28	 C37	12.770	49.999	80.705	C.3	1	RES1	0.000	
29	 C38	16.118	51.195	80.792	C.2	1	RES1	0.000	
30	 C39	12.632	50.383	84.023	C.2	1	RES1	0.000	
31	 C40	11.873	50.511	85.182	C.2	1	RES1	0.000	
32	 C41	12.677	52.333	93.958	C.3	1	RES1	0.000	
33	 C42	13.248	52.349	95.386	C.3	1	RES1	0.000	
34	 C43	13.687	51.604	93.059	C.3	1	RES1	0.000	
35	 C44	11.363	51.498	94.010	C.3	1	RES1	0.000	
@<TRIPOS>BOND
1 1 26 ar
2 1 29 ar
3 10 19 2
4 3 11 1
5 11 12 1
6 2 12 1
7 5 12 2
8 2 13 1
9 13 14 1
10 13 32 1
11 4 14 1
12 7 14 2
13 4 15 1
14 15 16 1
15 9 16 1
16 16 17 1
17 17 18 1
18 4 18 1
19 18 19 1
20 6 19 1
21 6 20 1
22 20 21 1
23 20 22 1
24 22 23 ar
25 22 31 ar
26 23 24 ar
27 24 25 ar
28 25 26 1
29 25 30 ar
30 26 27 ar
31 8 27 ar
32 27 28 1
33 8 29 ar
34 30 31 ar
35 32 33 1
36 32 34 1
37 32 35 1
@<TRIPOS>SUBSTRUCTURE
1	RES1	1	GROUP	1 ****	RES
