# created with PyMOL 2.5.2
@<TRIPOS>MOLECULE
BRD2_5NVV_E3ligase
34 36 1                 
SMALL
USER_CHARGES
@<TRIPOS>ATOM
1	  S1	15.919	51.640	82.320	S.2	1	RES1	0.000	
2	  N3	11.440	54.426	94.217	N.pl3	1	RES1	0.000	
3	  N4	13.149	54.160	91.074	N.pl3	1	RES1	0.000	
4	  O4	10.519	57.507	96.057	O.3	1	RES1	0.000	
5	  N5	11.493	53.200	87.852	N.pl3	1	RES1	0.000	
6	  O5	12.664	56.295	94.804	O.2	1	RES1	0.000	
7	  N6	14.936	50.558	80.217	N.2	1	RES1	0.000	
8	  O6	10.960	53.681	91.603	O.2	1	RES1	0.000	
9	  O7	14.432	56.805	90.347	O.3	1	RES1	0.000	
10	  O8	12.636	51.955	89.405	O.2	1	RES1	0.000	
11	 C16	10.364	56.202	95.483	C.3	1	RES1	0.000	
12	 C17	11.612	55.677	94.802	C.2	1	RES1	0.000	
13	 C18	12.509	53.762	93.492	C.3	1	RES1	0.000	
14	 C19	12.114	53.865	91.981	C.2	1	RES1	0.000	
15	 C20	14.483	54.606	91.333	C.3	1	RES1	0.000	
16	 C21	14.859	55.453	90.145	C.3	1	RES1	0.000	
17	 C22	14.075	54.829	88.997	C.3	1	RES1	0.000	
18	 C23	12.796	54.334	89.625	C.3	1	RES1	0.000	
19	 C24	12.361	53.043	88.937	C.2	1	RES1	0.000	
20	 C25	10.994	52.073	87.086	C.3	1	RES1	0.000	
21	 C26	11.868	51.796	85.896	C.2	1	RES1	0.000	
22	 C27	11.831	50.571	85.229	C.2	1	RES1	0.000	
23	 C28	12.611	50.357	84.092	C.2	1	RES1	0.000	
24	 C29	13.475	51.344	83.610	C.2	1	RES1	0.000	
25	 C30	14.279	51.131	82.378	C.2	1	RES1	0.000	
26	 C31	13.949	50.548	81.156	C.2	1	RES1	0.000	
27	 C32	12.642	49.939	80.770	C.3	1	RES1	0.000	
28	 C33	16.026	51.103	80.749	C.2	1	RES1	0.000	
29	 C34	13.479	52.584	84.263	C.2	1	RES1	0.000	
30	 C35	12.696	52.791	85.394	C.2	1	RES1	0.000	
31	 C36	12.738	52.299	93.981	C.3	1	RES1	0.000	
32	 C37	13.633	51.467	93.039	C.3	1	RES1	0.000	
33	 C38	13.418	52.296	95.367	C.3	1	RES1	0.000	
34	 C39	11.393	51.562	94.116	C.3	1	RES1	0.000	
@<TRIPOS>BOND
1 1 25 ar
2 1 28 ar
3 4 11 1
4 11 12 1
5 2 12 1
6 6 12 2
7 2 13 1
8 13 14 1
9 13 31 1
10 3 14 1
11 8 14 2
12 3 15 1
13 15 16 1
14 9 16 1
15 16 17 1
16 17 18 1
17 3 18 1
18 18 19 1
19 5 19 1
20 10 19 2
21 5 20 1
22 20 21 1
23 21 22 ar
24 21 30 ar
25 22 23 ar
26 23 24 ar
27 24 25 1
28 24 29 ar
29 25 26 ar
30 7 26 ar
31 26 27 1
32 7 28 ar
33 29 30 ar
34 31 32 1
35 31 33 1
36 31 34 1
@<TRIPOS>SUBSTRUCTURE
1	RES1	1	GROUP	1 ****	RES
