# created with PyMOL 2.5.2
@<TRIPOS>MOLECULE
BRD2_5NVV_E3ligase
34 36 1                 
SMALL
USER_CHARGES
@<TRIPOS>ATOM
1	  S1	15.872	52.022	82.428	S.2	1	RES1	0.000	
2	  N3	11.460	54.531	94.319	N.pl3	1	RES1	0.000	
3	  N4	12.849	54.223	90.993	N.pl3	1	RES1	0.000	
4	  O4	10.488	57.705	95.830	O.3	1	RES1	0.000	
5	  N5	11.297	52.864	87.986	N.pl3	1	RES1	0.000	
6	  O5	12.712	56.417	94.761	O.2	1	RES1	0.000	
7	  N6	15.069	50.852	80.297	N.2	1	RES1	0.000	
8	  O6	10.725	53.783	91.788	O.2	1	RES1	0.000	
9	  O7	15.770	55.751	89.622	O.3	1	RES1	0.000	
10	  O8	12.843	51.894	89.432	O.2	1	RES1	0.000	
11	 C16	10.516	56.269	95.688	C.3	1	RES1	0.000	
12	 C17	11.686	55.754	94.885	C.2	1	RES1	0.000	
13	 C18	12.459	53.846	93.486	C.3	1	RES1	0.000	
14	 C19	11.930	53.955	92.030	C.2	1	RES1	0.000	
15	 C20	14.250	54.585	91.150	C.3	1	RES1	0.000	
16	 C21	14.750	54.737	89.735	C.3	1	RES1	0.000	
17	 C22	13.534	55.108	88.937	C.3	1	RES1	0.000	
18	 C23	12.406	54.316	89.621	C.3	1	RES1	0.000	
19	 C24	12.234	52.912	89.005	C.2	1	RES1	0.000	
20	 C25	11.021	51.660	87.256	C.3	1	RES1	0.000	
21	 C26	11.890	51.563	85.994	C.2	1	RES1	0.000	
22	 C27	12.549	52.694	85.530	C.2	1	RES1	0.000	
23	 C28	13.331	52.614	84.369	C.2	1	RES1	0.000	
24	 C29	13.453	51.427	83.654	C.2	1	RES1	0.000	
25	 C30	14.284	51.348	82.430	C.2	1	RES1	0.000	
26	 C31	14.042	50.773	81.198	C.2	1	RES1	0.000	
27	 C32	12.807	50.094	80.748	C.3	1	RES1	0.000	
28	 C33	16.051	51.484	80.820	C.2	1	RES1	0.000	
29	 C34	12.806	50.279	84.166	C.2	1	RES1	0.000	
30	 C35	12.039	50.375	85.330	C.2	1	RES1	0.000	
31	 C36	12.738	52.391	93.941	C.3	1	RES1	0.000	
32	 C37	13.552	51.582	92.915	C.3	1	RES1	0.000	
33	 C38	13.515	52.396	95.276	C.3	1	RES1	0.000	
34	 C39	11.427	51.665	94.210	C.3	1	RES1	0.000	
@<TRIPOS>BOND
1 1 25 ar
2 1 28 ar
3 4 11 1
4 11 12 1
5 2 12 1
6 6 12 2
7 2 13 1
8 13 14 1
9 13 31 1
10 3 14 1
11 8 14 2
12 3 15 1
13 15 16 1
14 9 16 1
15 16 17 1
16 17 18 1
17 3 18 1
18 18 19 1
19 5 19 1
20 10 19 2
21 5 20 1
22 20 21 1
23 21 22 ar
24 21 30 ar
25 22 23 ar
26 23 24 ar
27 24 25 1
28 24 29 ar
29 25 26 ar
30 7 26 ar
31 26 27 1
32 7 28 ar
33 29 30 ar
34 31 32 1
35 31 33 1
36 31 34 1
@<TRIPOS>SUBSTRUCTURE
1	RES1	1	GROUP	1 ****	RES
