# created with PyMOL 2.5.2
@<TRIPOS>MOLECULE
BRD2_5NVV_E3ligase
34 36 1                 
SMALL
USER_CHARGES
@<TRIPOS>ATOM
1	  S1	15.883	51.529	82.319	S.2	1	RES1	0.000	
2	  N3	11.400	54.356	94.217	N.pl3	1	RES1	0.000	
3	  N4	13.162	54.224	91.073	N.pl3	1	RES1	0.000	
4	  N5	11.649	53.295	87.851	N.pl3	1	RES1	0.000	
5	  O5	10.407	57.417	96.037	O.3	1	RES1	0.000	
6	  N6	14.939	50.334	80.240	N.2	1	RES1	0.000	
7	  O6	12.613	56.218	94.886	O.2	1	RES1	0.000	
8	  O7	11.001	53.632	91.591	O.2	1	RES1	0.000	
9	  O8	14.363	56.954	90.485	O.3	1	RES1	0.000	
10	  O9	12.805	52.022	89.371	O.2	1	RES1	0.000	
11	 C18	10.266	56.119	95.500	C.3	1	RES1	0.000	
12	 C19	11.567	55.587	94.842	C.2	1	RES1	0.000	
13	 C20	12.483	53.718	93.489	C.3	1	RES1	0.000	
14	 C21	12.169	53.849	91.971	C.2	1	RES1	0.000	
15	 C22	14.505	54.729	91.415	C.3	1	RES1	0.000	
16	 C23	14.848	55.629	90.253	C.3	1	RES1	0.000	
17	 C24	14.166	55.007	89.065	C.3	1	RES1	0.000	
18	 C25	12.875	54.431	89.657	C.3	1	RES1	0.000	
19	 C26	12.496	53.148	88.907	C.2	1	RES1	0.000	
20	 C27	11.072	52.195	87.103	C.3	1	RES1	0.000	
21	 C28	11.856	51.901	85.848	C.2	1	RES1	0.000	
22	 C29	12.728	52.874	85.327	C.2	1	RES1	0.000	
23	 C30	13.473	52.599	84.190	C.2	1	RES1	0.000	
24	 C31	13.374	51.377	83.521	C.2	1	RES1	0.000	
25	 C32	14.213	51.064	82.330	C.2	1	RES1	0.000	
26	 C33	13.887	50.456	81.145	C.2	1	RES1	0.000	
27	 C34	12.596	49.828	80.742	C.3	1	RES1	0.000	
28	 C35	16.018	50.880	80.749	C.2	1	RES1	0.000	
29	 C36	12.522	50.388	84.084	C.2	1	RES1	0.000	
30	 C37	11.793	50.642	85.225	C.2	1	RES1	0.000	
31	 C38	12.742	52.251	93.968	C.3	1	RES1	0.000	
32	 C39	13.422	52.240	95.348	C.3	1	RES1	0.000	
33	 C40	13.644	51.485	92.967	C.3	1	RES1	0.000	
34	 C41	11.416	51.479	94.096	C.3	1	RES1	0.000	
@<TRIPOS>BOND
1 1 25 ar
2 1 28 ar
3 5 11 1
4 11 12 1
5 2 12 1
6 7 12 2
7 2 13 1
8 13 14 1
9 13 31 1
10 3 14 1
11 8 14 2
12 3 15 1
13 15 16 1
14 9 16 1
15 16 17 1
16 17 18 1
17 3 18 1
18 18 19 1
19 4 19 1
20 10 19 2
21 4 20 1
22 20 21 1
23 21 22 ar
24 21 30 ar
25 22 23 ar
26 23 24 ar
27 24 25 1
28 24 29 ar
29 25 26 ar
30 6 26 ar
31 26 27 1
32 6 28 ar
33 29 30 ar
34 31 32 1
35 31 33 1
36 31 34 1
@<TRIPOS>SUBSTRUCTURE
1	RES1	1	GROUP	1 ****	RES
