# created with PyMOL 2.5.2
@<TRIPOS>MOLECULE
BRD2_5NVV_E3ligase
34 36 1                 
SMALL
USER_CHARGES
@<TRIPOS>ATOM
1	  S1	15.901	51.648	82.414	S.2	1	RES1	0.000	
2	  N3	11.426	54.426	94.217	N.pl3	1	RES1	0.000	
3	  N4	13.122	54.157	91.065	N.pl3	1	RES1	0.000	
4	  N5	11.495	53.208	87.925	N.pl3	1	RES1	0.000	
5	  N6	14.985	50.540	80.287	N.2	1	RES1	0.000	
6	  O6	10.508	57.540	95.953	O.3	1	RES1	0.000	
7	  O7	12.624	56.286	94.845	O.2	1	RES1	0.000	
8	  O8	10.964	53.650	91.598	O.2	1	RES1	0.000	
9	  O9	14.423	56.797	90.263	O.3	1	RES1	0.000	
10	 O10	12.794	51.912	89.289	O.2	1	RES1	0.000	
11	 C20	10.324	56.180	95.466	C.3	1	RES1	0.000	
12	 C21	11.576	55.642	94.807	C.2	1	RES1	0.000	
13	 C22	12.512	53.748	93.466	C.3	1	RES1	0.000	
14	 C23	12.119	53.858	91.966	C.2	1	RES1	0.000	
15	 C24	14.489	54.584	91.343	C.3	1	RES1	0.000	
16	 C25	14.878	55.434	90.133	C.3	1	RES1	0.000	
17	 C26	14.125	54.776	88.983	C.3	1	RES1	0.000	
18	 C27	12.801	54.307	89.640	C.3	1	RES1	0.000	
19	 C28	12.356	53.027	88.968	C.2	1	RES1	0.000	
20	 C29	10.984	52.132	87.101	C.3	1	RES1	0.000	
21	 C30	11.797	51.901	85.860	C.2	1	RES1	0.000	
22	 C31	12.673	52.845	85.389	C.2	1	RES1	0.000	
23	 C32	13.467	52.585	84.264	C.2	1	RES1	0.000	
24	 C33	13.433	51.359	83.612	C.2	1	RES1	0.000	
25	 C34	14.242	51.140	82.401	C.2	1	RES1	0.000	
26	 C35	13.952	50.535	81.200	C.2	1	RES1	0.000	
27	 C36	12.687	49.919	80.802	C.3	1	RES1	0.000	
28	 C37	16.044	51.087	80.808	C.2	1	RES1	0.000	
29	 C38	12.548	50.383	84.122	C.2	1	RES1	0.000	
30	 C39	11.746	50.624	85.242	C.2	1	RES1	0.000	
31	 C40	12.767	52.297	93.963	C.3	1	RES1	0.000	
32	 C41	13.661	51.474	92.976	C.3	1	RES1	0.000	
33	 C42	13.483	52.318	95.310	C.3	1	RES1	0.000	
34	 C43	11.446	51.538	94.133	C.3	1	RES1	0.000	
@<TRIPOS>BOND
1 1 25 ar
2 1 28 ar
3 10 19 2
4 6 11 1
5 11 12 1
6 2 12 1
7 7 12 2
8 2 13 1
9 13 14 1
10 13 31 1
11 3 14 1
12 8 14 2
13 3 15 1
14 15 16 1
15 9 16 1
16 16 17 1
17 17 18 1
18 3 18 1
19 18 19 1
20 4 19 1
21 4 20 1
22 20 21 1
23 21 22 ar
24 21 30 ar
25 22 23 ar
26 23 24 ar
27 24 25 1
28 24 29 ar
29 25 26 ar
30 5 26 ar
31 26 27 1
32 5 28 ar
33 29 30 ar
34 31 32 1
35 31 33 1
36 31 34 1
@<TRIPOS>SUBSTRUCTURE
1	RES1	1	GROUP	1 ****	RES
