# created with PyMOL 2.5.2
@<TRIPOS>MOLECULE
BRD2_5NVV_E3ligase
34 36 1                 
SMALL
USER_CHARGES
@<TRIPOS>ATOM
1	  S1	15.915	51.729	82.435	S.2	1	RES1	0.000	
2	  N3	11.393	54.484	94.260	N.pl3	1	RES1	0.000	
3	  N4	13.077	54.097	91.067	N.pl3	1	RES1	0.000	
4	  N5	11.474	53.093	87.854	N.pl3	1	RES1	0.000	
5	  N6	15.134	50.555	80.269	N.2	1	RES1	0.000	
6	  O6	10.538	57.507	96.137	O.3	1	RES1	0.000	
7	  O7	12.611	56.374	94.716	O.2	1	RES1	0.000	
8	  O8	10.925	53.676	91.672	O.2	1	RES1	0.000	
9	  O9	14.355	56.737	90.457	O.3	1	RES1	0.000	
10	 O10	12.816	51.823	89.217	O.2	1	RES1	0.000	
11	 C20	10.334	56.254	95.479	C.3	1	RES1	0.000	
12	 C21	11.578	55.745	94.811	C.2	1	RES1	0.000	
13	 C22	12.480	53.803	93.495	C.3	1	RES1	0.000	
14	 C23	12.080	53.845	92.016	C.2	1	RES1	0.000	
15	 C24	14.449	54.470	91.356	C.3	1	RES1	0.000	
16	 C25	14.819	55.403	90.200	C.3	1	RES1	0.000	
17	 C26	14.057	54.834	89.003	C.3	1	RES1	0.000	
18	 C27	12.785	54.240	89.635	C.3	1	RES1	0.000	
19	 C28	12.352	52.943	88.914	C.2	1	RES1	0.000	
20	 C29	10.983	52.011	87.076	C.3	1	RES1	0.000	
21	 C30	11.803	51.801	85.832	C.2	1	RES1	0.000	
22	 C31	12.669	52.808	85.385	C.2	1	RES1	0.000	
23	 C32	13.443	52.623	84.238	C.2	1	RES1	0.000	
24	 C33	13.386	51.403	83.510	C.2	1	RES1	0.000	
25	 C34	14.266	51.149	82.360	C.2	1	RES1	0.000	
26	 C35	14.053	50.584	81.123	C.2	1	RES1	0.000	
27	 C36	12.812	49.893	80.662	C.3	1	RES1	0.000	
28	 C37	16.175	51.132	80.864	C.2	1	RES1	0.000	
29	 C38	12.571	50.396	83.984	C.2	1	RES1	0.000	
30	 C39	11.786	50.588	85.157	C.2	1	RES1	0.000	
31	 C40	12.756	52.337	94.024	C.3	1	RES1	0.000	
32	 C41	13.752	51.562	93.130	C.3	1	RES1	0.000	
33	 C42	13.290	52.377	95.439	C.3	1	RES1	0.000	
34	 C43	11.435	51.589	94.050	C.3	1	RES1	0.000	
@<TRIPOS>BOND
1 1 25 ar
2 1 28 ar
3 10 19 2
4 6 11 1
5 11 12 1
6 2 12 1
7 7 12 2
8 2 13 1
9 13 14 1
10 13 31 1
11 3 14 1
12 8 14 2
13 3 15 1
14 15 16 1
15 9 16 1
16 16 17 1
17 17 18 1
18 3 18 1
19 18 19 1
20 4 19 1
21 4 20 1
22 20 21 1
23 21 22 ar
24 21 30 ar
25 22 23 ar
26 23 24 ar
27 24 25 1
28 24 29 ar
29 25 26 ar
30 5 26 ar
31 26 27 1
32 5 28 ar
33 29 30 ar
34 31 32 1
35 31 33 1
36 31 34 1
@<TRIPOS>SUBSTRUCTURE
1	RES1	1	GROUP	1 ****	RES
