# created with PyMOL 2.5.2
@<TRIPOS>MOLECULE
BRD4_5NVV_E3ligase
34 36 1                 
SMALL
USER_CHARGES
@<TRIPOS>ATOM
1	  C1	12.825	49.941	80.588	C.3	1	RES1	0.000	
2	  N1	11.544	53.132	87.797	N.pl3	1	RES1	0.000	
3	  O1	12.780	51.897	89.255	O.2	1	RES1	0.000	
4	  C2	14.071	50.529	81.073	C.2	1	RES1	0.000	
5	  N2	12.916	54.116	91.062	N.pl3	1	RES1	0.000	
6	  O2	14.384	56.700	90.547	O.3	1	RES1	0.000	
7	  S2	15.973	51.718	82.310	S.2	1	RES1	0.000	
8	  C3	14.349	51.156	82.283	C.2	1	RES1	0.000	
9	  N3	11.402	54.494	94.320	N.pl3	1	RES1	0.000	
10	  O3	10.794	53.715	91.798	O.2	1	RES1	0.000	
11	  C4	13.480	51.372	83.454	C.2	1	RES1	0.000	
12	  O4	12.539	56.440	94.770	O.2	1	RES1	0.000	
13	  C5	12.633	50.364	83.926	C.2	1	RES1	0.000	
14	  O5	10.460	57.497	96.272	O.3	1	RES1	0.000	
15	  C6	11.849	50.586	85.067	C.2	1	RES1	0.000	
16	  C7	11.898	51.782	85.754	C.2	1	RES1	0.000	
17	  C8	11.068	52.001	87.004	C.3	1	RES1	0.000	
18	  C9	12.370	52.978	88.864	C.2	1	RES1	0.000	
19	 C10	12.701	54.288	89.631	C.3	1	RES1	0.000	
20	 N10	15.158	50.483	80.182	N.2	1	RES1	0.000	
21	 C11	14.024	54.827	89.081	C.3	1	RES1	0.000	
22	 C12	14.762	55.332	90.310	C.3	1	RES1	0.000	
23	 C13	14.292	54.430	91.408	C.3	1	RES1	0.000	
24	 C14	11.977	53.867	92.058	C.2	1	RES1	0.000	
25	 C15	12.448	53.830	93.535	C.3	1	RES1	0.000	
26	 C16	11.537	55.771	94.874	C.2	1	RES1	0.000	
27	 C17	10.294	56.183	95.647	C.3	1	RES1	0.000	
28	 C43	12.752	52.379	94.063	C.3	1	RES1	0.000	
29	 C44	11.493	51.475	94.017	C.3	1	RES1	0.000	
30	 C45	13.239	52.460	95.510	C.3	1	RES1	0.000	
31	 C46	13.853	51.709	93.221	C.3	1	RES1	0.000	
32	 C47	12.771	52.796	85.286	C.2	1	RES1	0.000	
33	 C48	13.530	52.575	84.165	C.2	1	RES1	0.000	
34	 C49	16.189	51.064	80.731	C.2	1	RES1	0.000	
@<TRIPOS>BOND
1 1 4 1
2 2 17 1
3 2 18 1
4 3 18 2
5 4 8 ar
6 7 8 ar
7 7 34 ar
8 8 11 1
9 11 13 ar
10 11 33 ar
11 13 15 ar
12 15 16 ar
13 16 17 1
14 5 19 1
15 18 19 1
16 19 21 1
17 4 20 ar
18 20 34 ar
19 21 22 1
20 6 22 1
21 22 23 1
22 5 23 1
23 5 24 1
24 10 24 2
25 24 25 1
26 9 25 1
27 25 28 1
28 9 26 1
29 12 26 2
30 26 27 1
31 14 27 1
32 28 29 1
33 28 30 1
34 28 31 1
35 16 32 ar
36 32 33 ar
@<TRIPOS>SUBSTRUCTURE
1	RES1	1	GROUP	1 ****	RES
