# created with PyMOL 2.5.2
@<TRIPOS>MOLECULE
BRD4_5NVV_E3ligase
34 36 1                 
SMALL
USER_CHARGES
@<TRIPOS>ATOM
1	  C1	12.706	49.976	80.686	C.3	1	RES1	0.000	
2	  N1	11.517	53.146	87.923	N.pl3	1	RES1	0.000	
3	  O1	12.806	51.893	89.359	O.2	1	RES1	0.000	
4	  C2	13.988	50.574	81.133	C.2	1	RES1	0.000	
5	  N2	13.091	54.129	91.043	N.pl3	1	RES1	0.000	
6	  O2	14.354	56.823	90.427	O.3	1	RES1	0.000	
7	  S2	15.901	51.704	82.323	S.2	1	RES1	0.000	
8	  C3	14.275	51.163	82.353	C.2	1	RES1	0.000	
9	  N3	11.414	54.475	94.224	N.pl3	1	RES1	0.000	
10	  O3	10.907	53.674	91.626	O.2	1	RES1	0.000	
11	  C4	13.454	51.376	83.529	C.2	1	RES1	0.000	
12	  O4	12.610	56.355	94.776	O.2	1	RES1	0.000	
13	  C5	13.484	52.580	84.261	C.2	1	RES1	0.000	
14	  O5	10.500	57.469	96.152	O.3	1	RES1	0.000	
15	  C6	12.714	52.775	85.389	C.2	1	RES1	0.000	
16	  C7	11.876	51.783	85.868	C.2	1	RES1	0.000	
17	  C8	11.044	51.998	87.110	C.3	1	RES1	0.000	
18	  C9	12.414	52.967	88.978	C.2	1	RES1	0.000	
19	 C10	12.808	54.317	89.635	C.3	1	RES1	0.000	
20	 N10	15.039	50.528	80.239	N.2	1	RES1	0.000	
21	 C11	14.098	54.849	89.037	C.3	1	RES1	0.000	
22	 C12	14.825	55.475	90.184	C.3	1	RES1	0.000	
23	 C13	14.462	54.563	91.362	C.3	1	RES1	0.000	
24	 C14	12.085	53.877	91.991	C.2	1	RES1	0.000	
25	 C15	12.477	53.798	93.485	C.3	1	RES1	0.000	
26	 C16	11.585	55.713	94.792	C.2	1	RES1	0.000	
27	 C17	10.328	56.216	95.503	C.3	1	RES1	0.000	
28	 C46	12.688	52.317	93.968	C.3	1	RES1	0.000	
29	 C47	11.382	51.543	93.873	C.3	1	RES1	0.000	
30	 C48	13.156	52.310	95.426	C.3	1	RES1	0.000	
31	 C49	13.743	51.562	93.103	C.3	1	RES1	0.000	
32	 C50	11.861	50.546	85.224	C.2	1	RES1	0.000	
33	 C51	12.651	50.316	84.068	C.2	1	RES1	0.000	
34	 C52	16.109	51.077	80.774	C.2	1	RES1	0.000	
@<TRIPOS>BOND
1 1 4 1
2 2 17 1
3 2 18 1
4 3 18 2
5 4 8 ar
6 7 8 ar
7 7 34 ar
8 8 11 1
9 11 13 ar
10 11 33 ar
11 13 15 ar
12 15 16 ar
13 16 17 1
14 5 19 1
15 18 19 1
16 19 21 1
17 4 20 ar
18 20 34 ar
19 21 22 1
20 6 22 1
21 22 23 1
22 5 23 1
23 5 24 1
24 10 24 2
25 24 25 1
26 9 25 1
27 25 28 1
28 9 26 1
29 12 26 2
30 26 27 1
31 14 27 1
32 28 29 1
33 28 30 1
34 28 31 1
35 16 32 ar
36 32 33 ar
@<TRIPOS>SUBSTRUCTURE
1	RES1	1	GROUP	1 ****	RES
