# created with PyMOL 2.5.2
@<TRIPOS>MOLECULE
BRD4_5NVV_E3ligase
39 41 1                 
SMALL
USER_CHARGES
@<TRIPOS>ATOM
1	  C1	9.210	45.067	86.103	C.3	1	RES1	0.000	
2	  N1	10.162	45.911	85.387	N.3	1	RES1	0.000	
3	  O1	11.034	49.510	85.772	O.3	1	RES1	0.000	
4	  S1	15.949	51.714	82.342	S.2	1	RES1	0.000	
5	  C2	10.110	47.311	85.888	C.3	1	RES1	0.000	
6	  N2	15.006	50.549	80.230	N.2	1	RES1	0.000	
7	  O2	12.861	51.951	89.364	O.2	1	RES1	0.000	
8	  C3	11.101	48.181	85.189	C.3	1	RES1	0.000	
9	  N3	11.526	53.111	87.913	N.pl3	1	RES1	0.000	
10	  O3	14.473	56.773	90.533	O.3	1	RES1	0.000	
11	  C4	11.888	50.497	85.230	C.2	1	RES1	0.000	
12	  N4	13.055	54.149	91.005	N.pl3	1	RES1	0.000	
13	  O4	10.883	53.741	91.600	O.2	1	RES1	0.000	
14	  C5	12.663	50.315	84.082	C.2	1	RES1	0.000	
15	  N5	11.381	54.460	94.194	N.pl3	1	RES1	0.000	
16	  O5	12.612	56.335	94.743	O.2	1	RES1	0.000	
17	  C6	13.500	51.355	83.605	C.2	1	RES1	0.000	
18	  O6	10.547	57.464	96.158	O.3	1	RES1	0.000	
19	  C7	14.273	51.153	82.391	C.2	1	RES1	0.000	
20	  C8	13.969	50.560	81.173	C.2	1	RES1	0.000	
21	  C9	12.677	50.021	80.745	C.3	1	RES1	0.000	
22	 C10	16.072	51.110	80.764	C.2	1	RES1	0.000	
23	 C11	13.483	52.569	84.308	C.2	1	RES1	0.000	
24	 C12	12.704	52.764	85.431	C.2	1	RES1	0.000	
25	 C13	11.883	51.742	85.912	C.2	1	RES1	0.000	
26	 C14	11.067	51.949	87.155	C.3	1	RES1	0.000	
27	 C15	12.424	53.035	88.960	C.2	1	RES1	0.000	
28	 C16	12.762	54.362	89.622	C.3	1	RES1	0.000	
29	 C17	14.038	54.981	89.001	C.3	1	RES1	0.000	
30	 C18	14.820	55.430	90.185	C.3	1	RES1	0.000	
31	 C19	14.447	54.471	91.316	C.3	1	RES1	0.000	
32	 C20	12.044	53.891	91.949	C.2	1	RES1	0.000	
33	 C21	12.432	53.785	93.424	C.3	1	RES1	0.000	
34	 C22	11.575	55.691	94.791	C.2	1	RES1	0.000	
35	 C23	10.330	56.232	95.495	C.3	1	RES1	0.000	
36	 C49	12.672	52.302	93.940	C.3	1	RES1	0.000	
37	 C50	11.412	51.441	93.861	C.3	1	RES1	0.000	
38	 C51	13.172	52.325	95.363	C.3	1	RES1	0.000	
39	 C52	13.753	51.638	93.040	C.3	1	RES1	0.000	
@<TRIPOS>BOND
1 1 2 1
2 2 5 1
3 3 8 1
4 3 11 1
5 4 19 ar
6 4 22 ar
7 5 8 1
8 6 20 ar
9 11 14 ar
10 14 17 ar
11 17 19 1
12 19 20 ar
13 20 21 1
14 6 22 ar
15 17 23 ar
16 23 24 ar
17 24 25 ar
18 11 25 ar
19 25 26 1
20 9 26 1
21 7 27 2
22 9 27 1
23 27 28 1
24 12 28 1
25 28 29 1
26 29 30 1
27 10 30 1
28 30 31 1
29 12 31 1
30 12 32 1
31 13 32 2
32 32 33 1
33 15 33 1
34 33 36 1
35 15 34 1
36 16 34 2
37 34 35 1
38 18 35 1
39 36 37 1
40 36 38 1
41 36 39 1
@<TRIPOS>SUBSTRUCTURE
1	RES1	1	GROUP	1 ****	RES
