# created with PyMOL 2.5.2
@<TRIPOS>MOLECULE
BRD4_5NVV_E3ligase
41 44 1                 
SMALL
USER_CHARGES
@<TRIPOS>ATOM
1	  C1	12.697	49.954	80.793	C.3	1	RES1	0.000	
2	  N1	11.505	53.109	87.941	N.pl3	1	RES1	0.000	
3	  O1	12.851	51.934	89.340	O.2	1	RES1	0.000	
4	  C2	13.981	50.570	81.190	C.2	1	RES1	0.000	
5	  N2	13.115	54.144	91.007	N.pl3	1	RES1	0.000	
6	  O2	14.520	56.750	90.499	O.3	1	RES1	0.000	
7	  S2	15.906	51.769	82.355	S.2	1	RES1	0.000	
8	  C3	14.280	51.174	82.421	C.2	1	RES1	0.000	
9	  N3	11.382	54.449	94.173	N.pl3	1	RES1	0.000	
10	  O3	10.911	53.747	91.591	O.2	1	RES1	0.000	
11	  C4	13.483	51.374	83.617	C.2	1	RES1	0.000	
12	  O4	12.584	56.350	94.751	O.2	1	RES1	0.000	
13	  C5	13.468	52.594	84.309	C.2	1	RES1	0.000	
14	  O5	10.465	57.477	96.096	O.3	1	RES1	0.000	
15	  C6	12.679	52.767	85.446	C.2	1	RES1	0.000	
16	  C7	11.859	51.756	85.914	C.2	1	RES1	0.000	
17	  C8	11.038	51.961	87.163	C.3	1	RES1	0.000	
18	  C9	12.389	53.011	88.954	C.2	1	RES1	0.000	
19	  N9	10.617	45.514	84.714	N.3	1	RES1	0.000	
20	  O9	11.043	49.502	85.773	O.3	1	RES1	0.000	
21	 C10	12.800	54.356	89.593	C.3	1	RES1	0.000	
22	 N10	15.007	50.549	80.282	N.2	1	RES1	0.000	
23	 C11	14.074	54.939	88.995	C.3	1	RES1	0.000	
24	 C12	14.878	55.401	90.193	C.3	1	RES1	0.000	
25	 C13	14.478	54.452	91.276	C.3	1	RES1	0.000	
26	 C14	12.080	53.879	91.961	C.2	1	RES1	0.000	
27	 C15	12.457	53.763	93.458	C.3	1	RES1	0.000	
28	 C16	11.564	55.686	94.771	C.2	1	RES1	0.000	
29	 C17	10.268	56.239	95.404	C.3	1	RES1	0.000	
30	 C43	12.696	52.301	93.918	C.3	1	RES1	0.000	
31	 C44	11.424	51.434	93.853	C.3	1	RES1	0.000	
32	 C45	13.190	52.328	95.377	C.3	1	RES1	0.000	
33	 C46	13.765	51.615	93.053	C.3	1	RES1	0.000	
34	 C47	11.853	50.514	85.230	C.2	1	RES1	0.000	
35	 C48	11.208	48.143	85.358	C.3	1	RES1	0.000	
36	 C49	10.258	47.878	84.139	C.3	1	RES1	0.000	
37	 C50	9.646	46.481	84.168	C.3	1	RES1	0.000	
38	 C51	10.969	45.769	86.111	C.3	1	RES1	0.000	
39	 C52	10.856	47.236	86.506	C.3	1	RES1	0.000	
40	 C53	12.646	50.352	84.085	C.2	1	RES1	0.000	
41	 C54	16.053	51.142	80.778	C.2	1	RES1	0.000	
@<TRIPOS>BOND
1 1 4 1
2 2 17 1
3 2 18 1
4 3 18 2
5 4 8 ar
6 7 8 ar
7 7 41 ar
8 8 11 1
9 11 13 ar
10 11 40 ar
11 13 15 ar
12 15 16 ar
13 16 17 1
14 5 21 1
15 18 21 1
16 21 23 1
17 4 22 ar
18 22 41 ar
19 23 24 1
20 6 24 1
21 24 25 1
22 5 25 1
23 5 26 1
24 10 26 2
25 26 27 1
26 9 27 1
27 27 30 1
28 9 28 1
29 12 28 2
30 28 29 1
31 14 29 1
32 30 31 1
33 30 32 1
34 30 33 1
35 16 34 ar
36 20 34 1
37 34 40 ar
38 20 35 1
39 35 36 1
40 35 39 1
41 36 37 1
42 19 37 1
43 19 38 1
44 38 39 1
@<TRIPOS>SUBSTRUCTURE
1	RES1	1	GROUP	1 ****	RES
