# created with PyMOL 2.5.2
@<TRIPOS>MOLECULE
BRD4_5NVV_E3ligase
34 36 1                 
SMALL
USER_CHARGES
@<TRIPOS>ATOM
1	  C1	12.817	49.940	80.755	C.3	1	RES1	0.000	
2	  N1	11.346	52.940	87.955	N.pl3	1	RES1	0.000	
3	  O1	12.905	52.026	89.350	O.2	1	RES1	0.000	
4	  C2	14.051	50.664	81.188	C.2	1	RES1	0.000	
5	  N2	12.841	54.218	91.005	N.pl3	1	RES1	0.000	
6	  O2	15.760	55.854	89.711	O.3	1	RES1	0.000	
7	  S2	15.874	51.948	82.435	S.2	1	RES1	0.000	
8	  C3	14.287	51.265	82.427	C.2	1	RES1	0.000	
9	  N3	11.422	54.497	94.288	N.pl3	1	RES1	0.000	
10	  O3	10.752	53.671	91.748	O.2	1	RES1	0.000	
11	  C4	13.439	51.399	83.604	C.2	1	RES1	0.000	
12	  O4	12.641	56.417	94.783	O.2	1	RES1	0.000	
13	  C5	12.678	50.324	84.104	C.2	1	RES1	0.000	
14	  O5	10.607	57.539	96.274	O.3	1	RES1	0.000	
15	  C6	11.910	50.422	85.269	C.2	1	RES1	0.000	
16	  C7	11.856	51.641	85.939	C.2	1	RES1	0.000	
17	  C8	11.029	51.751	87.215	C.3	1	RES1	0.000	
18	  C9	12.285	52.993	88.963	C.2	1	RES1	0.000	
19	 C10	12.449	54.379	89.613	C.3	1	RES1	0.000	
20	 N10	15.079	50.750	80.276	N.2	1	RES1	0.000	
21	 C11	13.542	55.207	88.975	C.3	1	RES1	0.000	
22	 C12	14.777	54.821	89.763	C.3	1	RES1	0.000	
23	 C13	14.228	54.595	91.185	C.3	1	RES1	0.000	
24	 C14	11.918	53.924	92.002	C.2	1	RES1	0.000	
25	 C15	12.438	53.827	93.454	C.3	1	RES1	0.000	
26	 C16	11.592	55.756	94.867	C.2	1	RES1	0.000	
27	 C17	10.374	56.270	95.649	C.3	1	RES1	0.000	
28	 C47	12.760	52.403	93.955	C.3	1	RES1	0.000	
29	 C48	11.476	51.599	94.143	C.3	1	RES1	0.000	
30	 C49	13.454	52.477	95.312	C.3	1	RES1	0.000	
31	 C50	13.669	51.631	92.980	C.3	1	RES1	0.000	
32	 C51	12.594	52.722	85.487	C.2	1	RES1	0.000	
33	 C52	13.382	52.606	84.327	C.2	1	RES1	0.000	
34	 C53	16.115	51.385	80.815	C.2	1	RES1	0.000	
@<TRIPOS>BOND
1 1 4 1
2 2 17 1
3 2 18 1
4 3 18 2
5 4 8 ar
6 7 8 ar
7 7 34 ar
8 8 11 1
9 11 13 ar
10 11 33 ar
11 13 15 ar
12 15 16 ar
13 16 17 1
14 5 19 1
15 18 19 1
16 19 21 1
17 4 20 ar
18 20 34 ar
19 21 22 1
20 6 22 1
21 22 23 1
22 5 23 1
23 5 24 1
24 10 24 2
25 24 25 1
26 9 25 1
27 25 28 1
28 9 26 1
29 12 26 2
30 26 27 1
31 14 27 1
32 28 29 1
33 28 30 1
34 28 31 1
35 16 32 ar
36 32 33 ar
@<TRIPOS>SUBSTRUCTURE
1	RES1	1	GROUP	1 ****	RES
