# created with PyMOL 2.5.2
@<TRIPOS>MOLECULE
BRD4_5NVV_E3ligase
34 36 1                 
SMALL
USER_CHARGES
@<TRIPOS>ATOM
1	  C1	12.676	49.983	80.782	C.3	1	RES1	0.000	
2	  N1	11.519	53.115	87.902	N.pl3	1	RES1	0.000	
3	  O1	12.846	51.923	89.365	O.2	1	RES1	0.000	
4	  C2	13.967	50.546	81.182	C.2	1	RES1	0.000	
5	  N2	13.095	54.138	91.030	N.pl3	1	RES1	0.000	
6	  O2	14.461	56.763	90.527	O.3	1	RES1	0.000	
7	  S2	15.925	51.700	82.338	S.2	1	RES1	0.000	
8	  C3	14.294	51.168	82.388	C.2	1	RES1	0.000	
9	  N3	11.397	54.459	94.188	N.pl3	1	RES1	0.000	
10	  O3	10.910	53.730	91.609	O.2	1	RES1	0.000	
11	  C4	13.483	51.364	83.577	C.2	1	RES1	0.000	
12	  O4	12.586	56.318	94.775	O.2	1	RES1	0.000	
13	  C5	13.495	52.594	84.281	C.2	1	RES1	0.000	
14	  O5	10.457	57.445	96.117	O.3	1	RES1	0.000	
15	  C6	12.709	52.801	85.411	C.2	1	RES1	0.000	
16	  C7	11.880	51.794	85.898	C.2	1	RES1	0.000	
17	  C8	11.058	52.000	87.138	C.3	1	RES1	0.000	
18	  C9	12.416	53.021	88.950	C.2	1	RES1	0.000	
19	 C10	12.792	54.340	89.613	C.3	1	RES1	0.000	
20	 N10	14.989	50.505	80.250	N.2	1	RES1	0.000	
21	 C11	14.049	54.947	89.015	C.3	1	RES1	0.000	
22	 C12	14.863	55.444	90.188	C.3	1	RES1	0.000	
23	 C13	14.472	54.488	91.298	C.3	1	RES1	0.000	
24	 C14	12.074	53.882	91.962	C.2	1	RES1	0.000	
25	 C15	12.454	53.777	93.473	C.3	1	RES1	0.000	
26	 C16	11.516	55.682	94.789	C.2	1	RES1	0.000	
27	 C17	10.276	56.199	95.446	C.3	1	RES1	0.000	
28	 C46	12.724	52.308	93.926	C.3	1	RES1	0.000	
29	 C47	11.434	51.518	93.846	C.3	1	RES1	0.000	
30	 C48	13.191	52.313	95.418	C.3	1	RES1	0.000	
31	 C49	13.788	51.604	93.089	C.3	1	RES1	0.000	
32	 C50	11.850	50.565	85.215	C.2	1	RES1	0.000	
33	 C51	12.641	50.370	84.084	C.2	1	RES1	0.000	
34	 C52	16.064	51.054	80.743	C.2	1	RES1	0.000	
@<TRIPOS>BOND
1 1 4 1
2 2 17 1
3 2 18 1
4 3 18 2
5 4 8 ar
6 7 8 ar
7 7 34 ar
8 8 11 1
9 11 13 ar
10 11 33 ar
11 13 15 ar
12 15 16 ar
13 16 17 1
14 5 19 1
15 18 19 1
16 19 21 1
17 4 20 ar
18 20 34 ar
19 21 22 1
20 6 22 1
21 22 23 1
22 5 23 1
23 5 24 1
24 10 24 2
25 24 25 1
26 9 25 1
27 25 28 1
28 9 26 1
29 12 26 2
30 26 27 1
31 14 27 1
32 28 29 1
33 28 30 1
34 28 31 1
35 16 32 ar
36 32 33 ar
@<TRIPOS>SUBSTRUCTURE
1	RES1	1	GROUP	1 ****	RES
