# created with PyMOL 2.5.2
@<TRIPOS>MOLECULE
BRD4_4W9H_E3ligase
33 35 1                 
SMALL
USER_CHARGES
@<TRIPOS>ATOM
1	  C1	12.265	49.857	80.470	C.3	1	RES1	0.000	
2	  N1	11.224	53.085	87.567	N.pl3	1	RES1	0.000	
3	  O1	12.293	51.800	89.123	O.2	1	RES1	0.000	
4	  C2	13.592	50.430	80.870	C.2	1	RES1	0.000	
5	  N2	12.580	54.041	90.879	N.pl3	1	RES1	0.000	
6	  O2	14.141	56.561	90.351	O.3	1	RES1	0.000	
7	  C3	13.964	50.965	82.090	C.2	1	RES1	0.000	
8	  N3	11.020	54.558	94.088	N.pl3	1	RES1	0.000	
9	  O3	10.433	53.726	91.602	O.2	1	RES1	0.000	
10	  S3	15.609	51.447	82.039	S.2	1	RES1	0.000	
11	  C4	13.166	51.207	83.308	C.2	1	RES1	0.000	
12	  O4	12.252	56.413	94.677	O.2	1	RES1	0.000	
13	  C5	12.282	50.236	83.788	C.2	1	RES1	0.000	
14	  C6	11.472	50.466	84.915	C.2	1	RES1	0.000	
15	  C7	11.553	51.694	85.576	C.2	1	RES1	0.000	
16	  C8	10.695	51.965	86.804	C.3	1	RES1	0.000	
17	  C9	12.019	52.896	88.696	C.2	1	RES1	0.000	
18	 C10	12.392	54.186	89.449	C.3	1	RES1	0.000	
19	 N10	14.598	50.392	79.933	N.2	1	RES1	0.000	
20	 C11	13.746	54.665	88.907	C.3	1	RES1	0.000	
21	 C12	14.461	55.175	90.130	C.3	1	RES1	0.000	
22	 C13	13.947	54.298	91.250	C.3	1	RES1	0.000	
23	 C14	11.608	53.849	91.868	C.2	1	RES1	0.000	
24	 C15	12.065	53.839	93.346	C.3	1	RES1	0.000	
25	 C16	11.207	55.796	94.689	C.2	1	RES1	0.000	
26	 C17	9.952	56.299	95.396	C.3	1	RES1	0.000	
27	 C53	12.319	52.398	93.929	C.3	1	RES1	0.000	
28	 C54	12.720	52.451	95.421	C.3	1	RES1	0.000	
29	 C55	13.461	51.725	93.172	C.3	1	RES1	0.000	
30	 C56	11.072	51.525	93.792	C.3	1	RES1	0.000	
31	 C57	12.415	52.708	85.083	C.2	1	RES1	0.000	
32	 C58	13.197	52.450	83.971	C.2	1	RES1	0.000	
33	 C59	15.692	50.902	80.411	C.2	1	RES1	0.000	
@<TRIPOS>BOND
1 1 4 1
2 2 16 1
3 2 17 1
4 3 17 2
5 4 7 ar
6 7 10 ar
7 7 11 1
8 10 33 ar
9 11 13 ar
10 11 32 ar
11 13 14 ar
12 14 15 ar
13 15 16 1
14 5 18 1
15 17 18 1
16 18 20 1
17 4 19 ar
18 19 33 ar
19 20 21 1
20 6 21 1
21 21 22 1
22 5 22 1
23 5 23 1
24 9 23 2
25 23 24 1
26 8 24 1
27 24 27 1
28 8 25 1
29 12 25 2
30 25 26 1
31 27 28 1
32 27 29 1
33 27 30 1
34 15 31 ar
35 31 32 ar
@<TRIPOS>SUBSTRUCTURE
1	RES1	1	GROUP	1 ****	RES
