# created with PyMOL 2.5.2
@<TRIPOS>MOLECULE
BRD4_4W9H_E3ligase
33 35 1                 
SMALL
USER_CHARGES
@<TRIPOS>ATOM
1	  C1	12.125	49.867	80.566	C.3	1	RES1	0.000	
2	  N1	11.266	53.122	87.674	N.pl3	1	RES1	0.000	
3	  O1	12.372	51.875	89.247	O.2	1	RES1	0.000	
4	  C2	13.448	50.391	80.951	C.2	1	RES1	0.000	
5	  N2	12.797	54.123	90.884	N.pl3	1	RES1	0.000	
6	  O2	14.095	56.769	90.191	O.3	1	RES1	0.000	
7	  C3	13.823	50.976	82.158	C.2	1	RES1	0.000	
8	  N3	11.078	54.489	94.015	N.pl3	1	RES1	0.000	
9	  O3	10.613	53.644	91.424	O.2	1	RES1	0.000	
10	  S3	15.529	51.356	82.107	S.2	1	RES1	0.000	
11	  C4	13.036	51.250	83.353	C.2	1	RES1	0.000	
12	  O4	12.411	56.253	94.662	O.2	1	RES1	0.000	
13	  C5	13.118	52.468	84.028	C.2	1	RES1	0.000	
14	  C6	12.368	52.730	85.178	C.2	1	RES1	0.000	
15	  C7	11.510	51.741	85.680	C.2	1	RES1	0.000	
16	  C8	10.703	51.999	86.934	C.3	1	RES1	0.000	
17	  C9	12.081	52.996	88.761	C.2	1	RES1	0.000	
18	 C10	12.514	54.296	89.459	C.3	1	RES1	0.000	
19	 N10	14.461	50.261	80.021	N.2	1	RES1	0.000	
20	 C11	13.780	54.806	88.854	C.3	1	RES1	0.000	
21	 C12	14.522	55.415	90.018	C.3	1	RES1	0.000	
22	 C13	14.147	54.565	91.192	C.3	1	RES1	0.000	
23	 C14	11.758	53.825	91.797	C.2	1	RES1	0.000	
24	 C15	12.127	53.748	93.318	C.3	1	RES1	0.000	
25	 C16	11.301	55.689	94.639	C.2	1	RES1	0.000	
26	 C17	10.076	56.306	95.255	C.3	1	RES1	0.000	
27	 C53	12.273	52.274	93.838	C.3	1	RES1	0.000	
28	 C54	10.891	51.566	93.809	C.3	1	RES1	0.000	
29	 C55	12.759	52.254	95.293	C.3	1	RES1	0.000	
30	 C56	13.253	51.415	92.987	C.3	1	RES1	0.000	
31	 C57	11.400	50.520	84.995	C.2	1	RES1	0.000	
32	 C58	12.144	50.288	83.852	C.2	1	RES1	0.000	
33	 C59	15.593	50.743	80.507	C.2	1	RES1	0.000	
@<TRIPOS>BOND
1 1 4 1
2 2 16 1
3 2 17 1
4 3 17 2
5 4 7 ar
6 7 10 ar
7 7 11 1
8 10 33 ar
9 11 13 ar
10 11 32 ar
11 13 14 ar
12 14 15 ar
13 15 16 1
14 5 18 1
15 17 18 1
16 18 20 1
17 4 19 ar
18 19 33 ar
19 20 21 1
20 6 21 1
21 21 22 1
22 5 22 1
23 5 23 1
24 9 23 2
25 23 24 1
26 8 24 1
27 24 27 1
28 8 25 1
29 12 25 2
30 25 26 1
31 27 28 1
32 27 29 1
33 27 30 1
34 15 31 ar
35 31 32 ar
@<TRIPOS>SUBSTRUCTURE
1	RES1	1	GROUP	1 ****	RES
