# created with PyMOL 2.5.2
@<TRIPOS>MOLECULE
BRD4_5NVV_E3ligase
34 36 1                 
SMALL
USER_CHARGES
@<TRIPOS>ATOM
1	  C1	12.814	50.010	80.693	C.3	1	RES1	0.000	
2	  N1	11.425	53.034	87.863	N.pl3	1	RES1	0.000	
3	  O1	12.772	51.793	89.195	O.2	1	RES1	0.000	
4	  C2	14.072	50.636	81.144	C.2	1	RES1	0.000	
5	  N2	13.033	54.028	91.052	N.pl3	1	RES1	0.000	
6	  O2	14.308	56.673	90.367	O.3	1	RES1	0.000	
7	  S2	15.972	51.777	82.426	S.2	1	RES1	0.000	
8	  C3	14.333	51.199	82.392	C.2	1	RES1	0.000	
9	  N3	11.441	54.532	94.250	N.pl3	1	RES1	0.000	
10	  O3	10.867	53.668	91.699	O.2	1	RES1	0.000	
11	  C4	13.481	51.368	83.577	C.2	1	RES1	0.000	
12	  O4	12.711	56.388	94.769	O.2	1	RES1	0.000	
13	  C5	12.618	50.347	83.994	C.2	1	RES1	0.000	
14	  O5	10.654	57.602	96.103	O.3	1	RES1	0.000	
15	  C6	11.806	50.542	85.111	C.2	1	RES1	0.000	
16	  C7	11.819	51.749	85.831	C.2	1	RES1	0.000	
17	  C8	10.953	51.927	87.046	C.3	1	RES1	0.000	
18	  C9	12.291	52.866	88.899	C.2	1	RES1	0.000	
19	  N9	15.102	50.681	80.230	N.2	1	RES1	0.000	
20	 C10	12.731	54.170	89.619	C.3	1	RES1	0.000	
21	 C11	14.011	54.733	88.986	C.3	1	RES1	0.000	
22	 C12	14.780	55.317	90.142	C.3	1	RES1	0.000	
23	 C13	14.425	54.464	91.318	C.3	1	RES1	0.000	
24	 C14	12.058	53.853	92.035	C.2	1	RES1	0.000	
25	 C15	12.465	53.798	93.516	C.3	1	RES1	0.000	
26	 C16	11.629	55.797	94.813	C.2	1	RES1	0.000	
27	 C17	10.387	56.347	95.470	C.3	1	RES1	0.000	
28	 C43	12.687	52.371	94.060	C.3	1	RES1	0.000	
29	 C44	11.420	51.502	94.048	C.3	1	RES1	0.000	
30	 C45	13.241	52.436	95.494	C.3	1	RES1	0.000	
31	 C46	13.768	51.660	93.217	C.3	1	RES1	0.000	
32	 C47	12.658	52.761	85.374	C.2	1	RES1	0.000	
33	 C48	13.459	52.587	84.268	C.2	1	RES1	0.000	
34	 C49	16.160	51.239	80.809	C.2	1	RES1	0.000	
@<TRIPOS>BOND
1 1 4 1
2 2 17 1
3 2 18 1
4 3 18 2
5 4 8 ar
6 4 19 ar
7 7 8 ar
8 7 34 ar
9 8 11 1
10 11 13 ar
11 11 33 ar
12 13 15 ar
13 15 16 ar
14 16 17 1
15 5 20 1
16 18 20 1
17 20 21 1
18 21 22 1
19 6 22 1
20 22 23 1
21 5 23 1
22 5 24 1
23 10 24 2
24 24 25 1
25 9 25 1
26 25 28 1
27 9 26 1
28 12 26 2
29 26 27 1
30 14 27 1
31 28 29 1
32 28 30 1
33 28 31 1
34 16 32 ar
35 32 33 ar
36 19 34 ar
@<TRIPOS>SUBSTRUCTURE
1	RES1	1	GROUP	1 ****	RES
