# created with PyMOL 2.5.2
@<TRIPOS>MOLECULE
EGFR_4W9H_E3ligase
33 35 1                 
SMALL
USER_CHARGES
@<TRIPOS>ATOM
1	  C1	12.186	49.893	80.533	C.3	1	RES1	0.000	
2	  N1	11.198	53.081	87.686	N.pl3	1	RES1	0.000	
3	  O1	12.273	51.851	89.269	O.2	1	RES1	0.000	
4	  S1	15.491	51.471	82.144	S.2	1	RES1	0.000	
5	  C2	13.500	50.429	80.977	C.2	1	RES1	0.000	
6	  N2	12.793	54.077	90.891	N.pl3	1	RES1	0.000	
7	  O2	14.107	56.712	90.020	O.3	1	RES1	0.000	
8	  C3	13.853	50.990	82.192	C.2	1	RES1	0.000	
9	  N3	11.104	54.513	94.009	N.pl3	1	RES1	0.000	
10	  O3	10.601	53.680	91.429	O.2	1	RES1	0.000	
11	  C4	13.036	51.242	83.399	C.2	1	RES1	0.000	
12	  O4	12.445	56.245	94.713	O.2	1	RES1	0.000	
13	  C5	13.108	52.464	84.078	C.2	1	RES1	0.000	
14	  C6	12.352	52.707	85.192	C.2	1	RES1	0.000	
15	  C7	11.461	51.713	85.668	C.2	1	RES1	0.000	
16	  C8	10.623	51.968	86.929	C.3	1	RES1	0.000	
17	  C9	12.021	52.907	88.766	C.2	1	RES1	0.000	
18	 C10	12.503	54.221	89.436	C.3	1	RES1	0.000	
19	 C11	13.827	54.657	88.803	C.3	1	RES1	0.000	
20	 C12	14.549	55.346	89.944	C.3	1	RES1	0.000	
21	 N12	14.528	50.306	80.062	N.2	1	RES1	0.000	
22	 C13	14.133	54.561	91.175	C.3	1	RES1	0.000	
23	 C14	11.771	53.831	91.800	C.2	1	RES1	0.000	
24	 C15	12.117	53.771	93.298	C.3	1	RES1	0.000	
25	 C16	11.353	55.718	94.637	C.2	1	RES1	0.000	
26	 C17	10.108	56.363	95.245	C.3	1	RES1	0.000	
27	 C49	12.281	52.281	93.848	C.3	1	RES1	0.000	
28	 C50	10.911	51.581	93.798	C.3	1	RES1	0.000	
29	 C51	12.725	52.324	95.309	C.3	1	RES1	0.000	
30	 C52	13.270	51.449	93.026	C.3	1	RES1	0.000	
31	 C53	11.378	50.521	84.983	C.2	1	RES1	0.000	
32	 C54	12.154	50.282	83.837	C.2	1	RES1	0.000	
33	 C55	15.611	50.863	80.545	C.2	1	RES1	0.000	
@<TRIPOS>BOND
1 1 5 1
2 2 16 1
3 2 17 1
4 3 17 2
5 4 8 ar
6 4 33 ar
7 5 8 ar
8 8 11 1
9 11 13 ar
10 11 32 ar
11 13 14 ar
12 14 15 ar
13 15 16 1
14 6 18 1
15 17 18 1
16 18 19 1
17 19 20 1
18 7 20 1
19 20 22 1
20 5 21 ar
21 21 33 ar
22 6 22 1
23 6 23 1
24 10 23 2
25 23 24 1
26 9 24 1
27 24 27 1
28 9 25 1
29 12 25 2
30 25 26 1
31 27 28 1
32 27 29 1
33 27 30 1
34 15 31 ar
35 31 32 ar
@<TRIPOS>SUBSTRUCTURE
1	RES1	1	GROUP	1 ****	RES
