# created with PyMOL 2.5.2
@<TRIPOS>MOLECULE
EGFR_4W9H_E3ligase
33 35 1                 
SMALL
USER_CHARGES
@<TRIPOS>ATOM
1	  C1	12.306	49.959	80.563	C.3	1	RES1	0.000	
2	  N1	11.081	52.776	87.767	N.pl3	1	RES1	0.000	
3	  O1	12.576	51.857	89.235	O.2	1	RES1	0.000	
4	  S1	15.516	51.841	82.057	S.2	1	RES1	0.000	
5	  C2	13.591	50.615	80.936	C.2	1	RES1	0.000	
6	  N2	12.464	54.137	90.854	N.pl3	1	RES1	0.000	
7	  O2	15.517	55.559	89.612	O.3	1	RES1	0.000	
8	  C3	13.925	51.170	82.182	C.2	1	RES1	0.000	
9	  N3	10.930	54.637	94.090	N.pl3	1	RES1	0.000	
10	  O3	10.319	53.798	91.545	O.2	1	RES1	0.000	
11	  C4	13.179	51.275	83.422	C.2	1	RES1	0.000	
12	  O4	12.213	56.419	94.731	O.2	1	RES1	0.000	
13	  C5	13.083	52.471	84.132	C.2	1	RES1	0.000	
14	  C6	12.332	52.553	85.293	C.2	1	RES1	0.000	
15	  C7	11.658	51.443	85.793	C.2	1	RES1	0.000	
16	  C8	10.815	51.543	87.049	C.3	1	RES1	0.000	
17	  C9	11.961	52.837	88.823	C.2	1	RES1	0.000	
18	 C10	12.130	54.239	89.428	C.3	1	RES1	0.000	
19	 C11	13.303	55.007	88.816	C.3	1	RES1	0.000	
20	 C12	14.497	54.567	89.673	C.3	1	RES1	0.000	
21	 N12	14.576	50.709	79.974	N.2	1	RES1	0.000	
22	 C13	13.891	54.388	91.070	C.3	1	RES1	0.000	
23	 C14	11.514	53.945	91.834	C.2	1	RES1	0.000	
24	 C15	11.959	53.929	93.313	C.3	1	RES1	0.000	
25	 C16	11.150	55.860	94.707	C.2	1	RES1	0.000	
26	 C17	9.937	56.406	95.377	C.3	1	RES1	0.000	
27	 C49	12.222	52.497	93.870	C.3	1	RES1	0.000	
28	 C50	12.601	52.459	95.358	C.3	1	RES1	0.000	
29	 C51	13.345	51.846	93.073	C.3	1	RES1	0.000	
30	 C52	10.948	51.630	93.654	C.3	1	RES1	0.000	
31	 C53	11.727	50.215	85.072	C.2	1	RES1	0.000	
32	 C54	12.492	50.137	83.913	C.2	1	RES1	0.000	
33	 C55	15.614	51.298	80.438	C.2	1	RES1	0.000	
@<TRIPOS>BOND
1 1 5 1
2 2 16 1
3 2 17 1
4 3 17 2
5 4 8 ar
6 4 33 ar
7 5 8 ar
8 8 11 1
9 11 13 ar
10 11 32 ar
11 13 14 ar
12 14 15 ar
13 15 16 1
14 6 18 1
15 17 18 1
16 18 19 1
17 19 20 1
18 7 20 1
19 20 22 1
20 5 21 ar
21 21 33 ar
22 6 22 1
23 6 23 1
24 10 23 2
25 23 24 1
26 9 24 1
27 24 27 1
28 9 25 1
29 12 25 2
30 25 26 1
31 27 28 1
32 27 29 1
33 27 30 1
34 15 31 ar
35 31 32 ar
@<TRIPOS>SUBSTRUCTURE
1	RES1	1	GROUP	1 ****	RES
