# created with PyMOL 2.5.2
@<TRIPOS>MOLECULE
BRD4_7BQU_E3ligase
19 21 1                 
SMALL
USER_CHARGES
@<TRIPOS>ATOM
1	  O4	27.391	17.221	11.974	O.2	1	RES1	0.000	
2	  O5	26.377	20.305	17.890	O.2	1	RES1	0.000	
3	  N6	25.404	17.690	13.147	N.2	1	RES1	0.000	
4	  O6	23.729	19.599	14.317	O.2	1	RES1	0.000	
5	  N7	25.075	19.875	16.082	N.pl3	1	RES1	0.000	
6	  O7	23.077	17.698	13.645	O.2	1	RES1	0.000	
7	 C19	25.557	15.498	10.245	C.2	1	RES1	0.000	
8	 C20	24.478	14.840	9.661	C.2	1	RES1	0.000	
9	 C21	23.195	14.976	10.177	C.2	1	RES1	0.000	
10	 C22	22.930	15.791	11.268	C.2	1	RES1	0.000	
11	 C23	24.016	16.414	11.867	C.2	1	RES1	0.000	
12	 C24	25.290	16.287	11.329	C.2	1	RES1	0.000	
13	 C25	26.190	17.116	12.178	C.2	1	RES1	0.000	
14	 C26	25.933	18.638	14.135	C.3	1	RES1	0.000	
15	 C27	26.848	17.974	15.166	C.3	1	RES1	0.000	
16	 C28	27.362	19.021	16.135	C.3	1	RES1	0.000	
17	 C29	26.251	19.774	16.807	C.2	1	RES1	0.000	
18	 C30	24.807	19.388	14.825	C.2	1	RES1	0.000	
19	 C31	24.088	17.351	12.994	C.2	1	RES1	0.000	
@<TRIPOS>BOND
1 7 8 ar
2 7 12 ar
3 8 9 ar
4 9 10 ar
5 10 11 ar
6 11 12 ar
7 11 19 ar
8 12 13 ar
9 1 13 2
10 3 13 ar
11 3 14 1
12 14 15 1
13 14 18 1
14 15 16 1
15 16 17 1
16 2 17 2
17 5 17 1
18 4 18 2
19 5 18 1
20 3 19 ar
21 6 19 2
@<TRIPOS>SUBSTRUCTURE
1	RES1	1	GROUP	1 ****	RES
