# created with PyMOL 2.5.2
@<TRIPOS>MOLECULE
EGFR_4W9H_E3ligase
33 35 1                 
SMALL
USER_CHARGES
@<TRIPOS>ATOM
1	  C1	12.153	49.944	80.506	C.3	1	RES1	0.000	
2	  N1	11.206	53.069	87.690	N.pl3	1	RES1	0.000	
3	  O1	12.306	51.822	89.242	O.2	1	RES1	0.000	
4	  S1	15.507	51.413	82.176	S.2	1	RES1	0.000	
5	  C2	13.508	50.432	80.959	C.2	1	RES1	0.000	
6	  N2	12.788	54.083	90.881	N.pl3	1	RES1	0.000	
7	  O2	14.107	56.736	90.073	O.3	1	RES1	0.000	
8	  C3	13.847	50.988	82.170	C.2	1	RES1	0.000	
9	  N3	11.087	54.524	94.003	N.pl3	1	RES1	0.000	
10	  O3	10.597	53.663	91.426	O.2	1	RES1	0.000	
11	  C4	13.010	51.247	83.351	C.2	1	RES1	0.000	
12	  O4	12.466	56.232	94.717	O.2	1	RES1	0.000	
13	  C5	13.096	52.470	84.040	C.2	1	RES1	0.000	
14	  C6	12.299	52.708	85.171	C.2	1	RES1	0.000	
15	  C7	11.459	51.720	85.687	C.2	1	RES1	0.000	
16	  C8	10.662	51.952	86.946	C.3	1	RES1	0.000	
17	  C9	12.046	52.904	88.763	C.2	1	RES1	0.000	
18	 C10	12.483	54.225	89.451	C.3	1	RES1	0.000	
19	 C11	13.780	54.689	88.819	C.3	1	RES1	0.000	
20	 C12	14.556	55.377	89.954	C.3	1	RES1	0.000	
21	 N12	14.546	50.341	80.041	N.2	1	RES1	0.000	
22	 C13	14.150	54.555	91.159	C.3	1	RES1	0.000	
23	 C14	11.762	53.847	91.810	C.2	1	RES1	0.000	
24	 C15	12.099	53.764	93.312	C.3	1	RES1	0.000	
25	 C16	11.360	55.723	94.635	C.2	1	RES1	0.000	
26	 C17	10.114	56.351	95.228	C.3	1	RES1	0.000	
27	 C49	12.274	52.298	93.862	C.3	1	RES1	0.000	
28	 C50	10.916	51.558	93.789	C.3	1	RES1	0.000	
29	 C51	12.734	52.322	95.315	C.3	1	RES1	0.000	
30	 C52	13.287	51.490	93.033	C.3	1	RES1	0.000	
31	 C53	11.379	50.499	85.003	C.2	1	RES1	0.000	
32	 C54	12.145	50.255	83.865	C.2	1	RES1	0.000	
33	 C55	15.645	50.825	80.583	C.2	1	RES1	0.000	
@<TRIPOS>BOND
1 1 5 1
2 2 16 1
3 2 17 1
4 3 17 2
5 4 8 ar
6 4 33 ar
7 5 8 ar
8 8 11 1
9 11 13 ar
10 11 32 ar
11 13 14 ar
12 14 15 ar
13 15 16 1
14 6 18 1
15 17 18 1
16 18 19 1
17 19 20 1
18 7 20 1
19 20 22 1
20 5 21 ar
21 21 33 ar
22 6 22 1
23 6 23 1
24 10 23 2
25 23 24 1
26 9 24 1
27 24 27 1
28 9 25 1
29 12 25 2
30 25 26 1
31 27 28 1
32 27 29 1
33 27 30 1
34 15 31 ar
35 31 32 ar
@<TRIPOS>SUBSTRUCTURE
1	RES1	1	GROUP	1 ****	RES
