# created with PyMOL 2.5.2
@<TRIPOS>MOLECULE
EGFR_4W9H_E3ligase
33 35 1                 
SMALL
USER_CHARGES
@<TRIPOS>ATOM
1	  C1	12.179	49.879	80.535	C.3	1	RES1	0.000	
2	  N1	11.186	53.088	87.691	N.pl3	1	RES1	0.000	
3	  O1	12.291	51.829	89.268	O.2	1	RES1	0.000	
4	  S1	15.504	51.448	82.101	S.2	1	RES1	0.000	
5	  C2	13.503	50.403	80.961	C.2	1	RES1	0.000	
6	  N2	12.765	54.079	90.893	N.pl3	1	RES1	0.000	
7	  O2	14.067	56.687	90.047	O.3	1	RES1	0.000	
8	  C3	13.850	50.995	82.163	C.2	1	RES1	0.000	
9	  N3	11.090	54.510	94.030	N.pl3	1	RES1	0.000	
10	  O3	10.583	53.693	91.443	O.2	1	RES1	0.000	
11	  C4	13.060	51.243	83.363	C.2	1	RES1	0.000	
12	  O4	12.472	56.260	94.687	O.2	1	RES1	0.000	
13	  C5	13.116	52.503	84.028	C.2	1	RES1	0.000	
14	  C6	12.334	52.712	85.178	C.2	1	RES1	0.000	
15	  C7	11.481	51.754	85.671	C.2	1	RES1	0.000	
16	  C8	10.659	51.990	86.926	C.3	1	RES1	0.000	
17	  C9	12.013	52.935	88.775	C.2	1	RES1	0.000	
18	 C10	12.482	54.239	89.453	C.3	1	RES1	0.000	
19	 C11	13.789	54.669	88.835	C.3	1	RES1	0.000	
20	 C12	14.544	55.371	89.943	C.3	1	RES1	0.000	
21	 N12	14.521	50.284	80.036	N.2	1	RES1	0.000	
22	 C13	14.128	54.544	91.172	C.3	1	RES1	0.000	
23	 C14	11.759	53.836	91.830	C.2	1	RES1	0.000	
24	 C15	12.126	53.750	93.313	C.3	1	RES1	0.000	
25	 C16	11.363	55.709	94.653	C.2	1	RES1	0.000	
26	 C17	10.136	56.360	95.236	C.3	1	RES1	0.000	
27	 C50	12.269	52.280	93.862	C.3	1	RES1	0.000	
28	 C51	10.896	51.607	93.861	C.3	1	RES1	0.000	
29	 C52	12.786	52.325	95.303	C.3	1	RES1	0.000	
30	 C53	13.231	51.410	93.031	C.3	1	RES1	0.000	
31	 C54	11.390	50.511	84.987	C.2	1	RES1	0.000	
32	 C55	12.162	50.302	83.851	C.2	1	RES1	0.000	
33	 C56	15.634	50.806	80.507	C.2	1	RES1	0.000	
@<TRIPOS>BOND
1 1 5 1
2 2 16 1
3 2 17 1
4 3 17 2
5 4 8 ar
6 4 33 ar
7 5 8 ar
8 8 11 1
9 11 13 ar
10 11 32 ar
11 13 14 ar
12 14 15 ar
13 15 16 1
14 6 18 1
15 17 18 1
16 18 19 1
17 19 20 1
18 7 20 1
19 20 22 1
20 5 21 ar
21 21 33 ar
22 6 22 1
23 6 23 1
24 10 23 2
25 23 24 1
26 9 24 1
27 24 27 1
28 9 25 1
29 12 25 2
30 25 26 1
31 27 28 1
32 27 29 1
33 27 30 1
34 15 31 ar
35 31 32 ar
@<TRIPOS>SUBSTRUCTURE
1	RES1	1	GROUP	1 ****	RES
