# created with PyMOL 2.5.2
@<TRIPOS>MOLECULE
EGFR_4W9H_E3ligase
33 35 1                 
SMALL
USER_CHARGES
@<TRIPOS>ATOM
1	  C1	12.322	49.871	80.567	C.3	1	RES1	0.000	
2	  N1	11.025	52.893	87.740	N.pl3	1	RES1	0.000	
3	  O1	12.504	51.920	89.210	O.2	1	RES1	0.000	
4	  S1	15.486	51.706	82.178	S.2	1	RES1	0.000	
5	  C2	13.572	50.522	80.979	C.2	1	RES1	0.000	
6	  N2	12.480	54.175	90.846	N.pl3	1	RES1	0.000	
7	  O2	15.451	55.703	89.563	O.3	1	RES1	0.000	
8	  C3	13.885	51.104	82.223	C.2	1	RES1	0.000	
9	  N3	11.078	54.606	94.113	N.pl3	1	RES1	0.000	
10	  O3	10.364	53.768	91.598	O.2	1	RES1	0.000	
11	  C4	13.080	51.236	83.429	C.2	1	RES1	0.000	
12	  O4	12.479	56.360	94.640	O.2	1	RES1	0.000	
13	  C5	12.982	52.464	84.099	C.2	1	RES1	0.000	
14	  C6	12.217	52.631	85.249	C.2	1	RES1	0.000	
15	  C7	11.488	51.538	85.759	C.2	1	RES1	0.000	
16	  C8	10.688	51.678	87.023	C.3	1	RES1	0.000	
17	  C9	11.927	52.919	88.797	C.2	1	RES1	0.000	
18	 C10	12.098	54.286	89.436	C.3	1	RES1	0.000	
19	 C11	13.226	55.111	88.818	C.3	1	RES1	0.000	
20	 C12	14.440	54.715	89.619	C.3	1	RES1	0.000	
21	 N12	14.580	50.605	80.035	N.2	1	RES1	0.000	
22	 C13	13.897	54.513	91.013	C.3	1	RES1	0.000	
23	 C14	11.550	53.925	91.843	C.2	1	RES1	0.000	
24	 C15	12.038	53.850	93.310	C.3	1	RES1	0.000	
25	 C16	11.385	55.806	94.716	C.2	1	RES1	0.000	
26	 C17	10.198	56.409	95.447	C.3	1	RES1	0.000	
27	 C50	12.273	52.391	93.817	C.3	1	RES1	0.000	
28	 C51	10.963	51.584	93.932	C.3	1	RES1	0.000	
29	 C52	12.948	52.415	95.207	C.3	1	RES1	0.000	
30	 C53	13.197	51.648	92.854	C.3	1	RES1	0.000	
31	 C54	11.560	50.313	85.082	C.2	1	RES1	0.000	
32	 C55	12.357	50.161	83.949	C.2	1	RES1	0.000	
33	 C56	15.638	51.203	80.572	C.2	1	RES1	0.000	
@<TRIPOS>BOND
1 1 5 1
2 2 16 1
3 2 17 1
4 3 17 2
5 4 8 ar
6 4 33 ar
7 5 8 ar
8 8 11 1
9 11 13 ar
10 11 32 ar
11 13 14 ar
12 14 15 ar
13 15 16 1
14 6 18 1
15 17 18 1
16 18 19 1
17 19 20 1
18 7 20 1
19 20 22 1
20 5 21 ar
21 21 33 ar
22 6 22 1
23 6 23 1
24 10 23 2
25 23 24 1
26 9 24 1
27 24 27 1
28 9 25 1
29 12 25 2
30 25 26 1
31 27 28 1
32 27 29 1
33 27 30 1
34 15 31 ar
35 31 32 ar
@<TRIPOS>SUBSTRUCTURE
1	RES1	1	GROUP	1 ****	RES
