# created with PyMOL 2.5.2
@<TRIPOS>MOLECULE
EGFR_4W9H_E3ligase
33 35 1                 
SMALL
USER_CHARGES
@<TRIPOS>ATOM
1	  C1	12.237	49.858	80.510	C.3	1	RES1	0.000	
2	  N1	11.255	53.018	87.714	N.pl3	1	RES1	0.000	
3	  O1	12.436	51.791	89.242	O.2	1	RES1	0.000	
4	  S1	15.545	51.495	82.112	S.2	1	RES1	0.000	
5	  C2	13.544	50.471	80.910	C.2	1	RES1	0.000	
6	  N2	12.748	54.048	90.876	N.pl3	1	RES1	0.000	
7	  O2	14.200	56.630	90.273	O.3	1	RES1	0.000	
8	  C3	13.870	51.015	82.163	C.2	1	RES1	0.000	
9	  N3	10.941	54.550	93.946	N.pl3	1	RES1	0.000	
10	  O3	10.552	53.695	91.388	O.2	1	RES1	0.000	
11	  C4	13.096	51.212	83.357	C.2	1	RES1	0.000	
12	  O4	12.172	56.317	94.727	O.2	1	RES1	0.000	
13	  C5	13.168	52.434	84.042	C.2	1	RES1	0.000	
14	  C6	12.414	52.667	85.206	C.2	1	RES1	0.000	
15	  C7	11.537	51.673	85.716	C.2	1	RES1	0.000	
16	  C8	10.740	51.915	86.945	C.3	1	RES1	0.000	
17	  C9	12.091	52.883	88.809	C.2	1	RES1	0.000	
18	 C10	12.505	54.223	89.434	C.3	1	RES1	0.000	
19	 C11	13.865	54.686	88.857	C.3	1	RES1	0.000	
20	 C12	14.601	55.257	90.043	C.3	1	RES1	0.000	
21	 N12	14.551	50.452	79.985	N.2	1	RES1	0.000	
22	 C13	14.133	54.414	91.221	C.3	1	RES1	0.000	
23	 C14	11.694	53.868	91.764	C.2	1	RES1	0.000	
24	 C15	12.015	53.813	93.266	C.3	1	RES1	0.000	
25	 C16	11.109	55.748	94.629	C.2	1	RES1	0.000	
26	 C17	9.829	56.254	95.210	C.3	1	RES1	0.000	
27	 C50	12.235	52.360	93.833	C.3	1	RES1	0.000	
28	 C51	12.443	52.394	95.365	C.3	1	RES1	0.000	
29	 C52	13.468	51.738	93.184	C.3	1	RES1	0.000	
30	 C53	11.038	51.479	93.532	C.3	1	RES1	0.000	
31	 C54	11.450	50.450	85.007	C.2	1	RES1	0.000	
32	 C55	12.238	50.235	83.867	C.2	1	RES1	0.000	
33	 C56	15.647	50.956	80.483	C.2	1	RES1	0.000	
@<TRIPOS>BOND
1 1 5 1
2 2 16 1
3 2 17 1
4 3 17 2
5 4 8 ar
6 4 33 ar
7 5 8 ar
8 8 11 1
9 11 13 ar
10 11 32 ar
11 13 14 ar
12 14 15 ar
13 15 16 1
14 6 18 1
15 17 18 1
16 18 19 1
17 19 20 1
18 7 20 1
19 20 22 1
20 5 21 ar
21 21 33 ar
22 6 22 1
23 6 23 1
24 10 23 2
25 23 24 1
26 9 24 1
27 24 27 1
28 9 25 1
29 12 25 2
30 25 26 1
31 27 28 1
32 27 29 1
33 27 30 1
34 15 31 ar
35 31 32 ar
@<TRIPOS>SUBSTRUCTURE
1	RES1	1	GROUP	1 ****	RES
