# created with PyMOL 2.5.2
@<TRIPOS>MOLECULE
EGFR_4W9F_E3ligase
29 31 1                 
SMALL
USER_CHARGES
@<TRIPOS>ATOM
1	  C1	-3.381	34.499	10.492	C.3	1	RES1	0.000	
2	  N1	-6.545	35.606	3.344	N.pl3	1	RES1	0.000	
3	  O1	-5.169	34.392	1.923	O.2	1	RES1	0.000	
4	  S1	-4.985	31.206	8.876	S.2	1	RES1	0.000	
5	  C2	-3.948	33.187	10.088	C.2	1	RES1	0.000	
6	  N2	-7.411	33.794	0.232	N.pl3	1	RES1	0.000	
7	  O2	-9.975	32.415	0.984	O.3	1	RES1	0.000	
8	  C3	-4.550	32.896	8.860	C.2	1	RES1	0.000	
9	  O3	-6.992	35.944	-0.470	O.2	1	RES1	0.000	
10	  C4	-4.807	33.734	7.704	C.2	1	RES1	0.000	
11	  C5	-3.846	34.607	7.219	C.2	1	RES1	0.000	
12	  C6	-4.023	35.394	6.102	C.2	1	RES1	0.000	
13	  C7	-5.275	35.331	5.428	C.2	1	RES1	0.000	
14	  C8	-5.468	36.145	4.161	C.3	1	RES1	0.000	
15	  C9	-6.296	34.679	2.317	C.2	1	RES1	0.000	
16	 C10	-7.574	34.161	1.630	C.3	1	RES1	0.000	
17	 C11	-8.043	32.864	2.335	C.3	1	RES1	0.000	
18	 C12	-8.608	32.023	1.209	C.3	1	RES1	0.000	
19	 N12	-3.861	32.153	10.965	N.2	1	RES1	0.000	
20	 C13	-7.750	32.397	0.001	C.3	1	RES1	0.000	
21	 C14	-7.122	34.772	-0.738	C.2	1	RES1	0.000	
22	 C15	-7.045	34.233	-2.183	C.3	1	RES1	0.000	
23	 C48	-5.631	34.217	-2.841	C.3	1	RES1	0.000	
24	 C49	-5.066	35.670	-3.042	C.3	1	RES1	0.000	
25	 C50	-5.757	33.585	-4.226	C.3	1	RES1	0.000	
26	 C51	-4.631	33.407	-2.035	C.3	1	RES1	0.000	
27	 C52	-6.275	34.465	5.881	C.2	1	RES1	0.000	
28	 C53	-6.038	33.718	7.024	C.2	1	RES1	0.000	
29	 C54	-4.381	31.062	10.421	C.2	1	RES1	0.000	
@<TRIPOS>BOND
1 1 5 1
2 2 14 1
3 2 15 1
4 3 15 2
5 4 8 ar
6 4 29 ar
7 5 8 ar
8 8 10 1
9 10 11 ar
10 10 28 ar
11 11 12 ar
12 12 13 ar
13 13 14 1
14 6 16 1
15 15 16 1
16 16 17 1
17 17 18 1
18 7 18 1
19 18 20 1
20 5 19 ar
21 19 29 ar
22 6 20 1
23 6 21 1
24 9 21 2
25 21 22 1
26 22 23 1
27 23 24 1
28 23 25 1
29 23 26 1
30 13 27 ar
31 27 28 ar
@<TRIPOS>SUBSTRUCTURE
1	RES1	1	GROUP	1 ****	RES
