# created with PyMOL 2.5.2
@<TRIPOS>MOLECULE
EGFR_4W9F_E3ligase
29 31 1                 
SMALL
USER_CHARGES
@<TRIPOS>ATOM
1	  C1	-3.512	34.394	10.528	C.3	1	RES1	0.000	
2	  N1	-6.383	35.806	3.288	N.pl3	1	RES1	0.000	
3	  O1	-5.227	34.297	1.985	O.2	1	RES1	0.000	
4	  S1	-5.226	31.249	8.728	S.2	1	RES1	0.000	
5	  C2	-4.136	33.167	10.036	C.2	1	RES1	0.000	
6	  N2	-7.477	33.915	0.260	N.pl3	1	RES1	0.000	
7	  O2	-8.827	31.052	1.909	O.3	1	RES1	0.000	
8	  C3	-4.692	32.911	8.796	C.2	1	RES1	0.000	
9	  O3	-7.128	35.943	-0.736	O.2	1	RES1	0.000	
10	  C4	-4.817	33.770	7.614	C.2	1	RES1	0.000	
11	  C5	-3.743	34.573	7.164	C.2	1	RES1	0.000	
12	  C6	-3.904	35.386	6.043	C.2	1	RES1	0.000	
13	  C7	-5.131	35.421	5.344	C.2	1	RES1	0.000	
14	  C8	-5.240	36.239	4.080	C.3	1	RES1	0.000	
15	  C9	-6.279	34.821	2.304	C.2	1	RES1	0.000	
16	 C10	-7.579	34.483	1.609	C.3	1	RES1	0.000	
17	 C11	-8.333	33.384	2.387	C.3	1	RES1	0.000	
18	 C12	-7.888	32.082	1.699	C.3	1	RES1	0.000	
19	 N12	-4.182	32.081	10.926	N.2	1	RES1	0.000	
20	 C13	-7.803	32.499	0.230	C.3	1	RES1	0.000	
21	 C14	-7.236	34.745	-0.844	C.2	1	RES1	0.000	
22	 C15	-7.152	34.090	-2.238	C.3	1	RES1	0.000	
23	 C48	-5.782	34.160	-2.936	C.3	1	RES1	0.000	
24	 C49	-5.519	35.603	-3.371	C.3	1	RES1	0.000	
25	 C50	-5.717	33.275	-4.188	C.3	1	RES1	0.000	
26	 C51	-4.629	33.742	-1.968	C.3	1	RES1	0.000	
27	 C52	-6.168	34.611	5.767	C.2	1	RES1	0.000	
28	 C53	-6.016	33.812	6.905	C.2	1	RES1	0.000	
29	 C54	-4.725	31.042	10.343	C.2	1	RES1	0.000	
@<TRIPOS>BOND
1 1 5 1
2 2 14 1
3 2 15 1
4 3 15 2
5 4 8 ar
6 4 29 ar
7 5 8 ar
8 8 10 1
9 10 11 ar
10 10 28 ar
11 11 12 ar
12 12 13 ar
13 13 14 1
14 6 16 1
15 15 16 1
16 16 17 1
17 17 18 1
18 7 18 1
19 18 20 1
20 5 19 ar
21 19 29 ar
22 6 20 1
23 6 21 1
24 9 21 2
25 21 22 1
26 22 23 1
27 23 24 1
28 23 25 1
29 23 26 1
30 13 27 ar
31 27 28 ar
@<TRIPOS>SUBSTRUCTURE
1	RES1	1	GROUP	1 ****	RES
