# created with PyMOL 2.5.2
@<TRIPOS>MOLECULE
EGFR_4W9F_E3ligase
29 31 1                 
SMALL
USER_CHARGES
@<TRIPOS>ATOM
1	  C1	-3.417	34.550	10.528	C.3	1	RES1	0.000	
2	  N1	-6.553	35.509	3.368	N.pl3	1	RES1	0.000	
3	  O1	-5.243	34.235	2.016	O.2	1	RES1	0.000	
4	  S1	-4.997	31.187	8.977	S.2	1	RES1	0.000	
5	  C2	-3.929	33.204	10.099	C.2	1	RES1	0.000	
6	  N2	-7.410	33.838	0.199	N.pl3	1	RES1	0.000	
7	  O2	-10.053	32.530	0.844	O.3	1	RES1	0.000	
8	  C3	-4.523	32.858	8.895	C.2	1	RES1	0.000	
9	  O3	-6.747	35.929	-0.440	O.2	1	RES1	0.000	
10	  C4	-4.745	33.648	7.688	C.2	1	RES1	0.000	
11	  C5	-3.772	34.491	7.169	C.2	1	RES1	0.000	
12	  C6	-3.994	35.282	6.066	C.2	1	RES1	0.000	
13	  C7	-5.227	35.233	5.388	C.2	1	RES1	0.000	
14	  C8	-5.461	36.041	4.143	C.3	1	RES1	0.000	
15	  C9	-6.334	34.604	2.345	C.2	1	RES1	0.000	
16	 C10	-7.610	34.172	1.590	C.3	1	RES1	0.000	
17	 C11	-8.152	32.899	2.247	C.3	1	RES1	0.000	
18	 C12	-8.718	32.112	1.114	C.3	1	RES1	0.000	
19	 N12	-3.833	32.204	11.050	N.2	1	RES1	0.000	
20	 C13	-7.849	32.456	-0.071	C.3	1	RES1	0.000	
21	 C14	-7.098	34.797	-0.750	C.2	1	RES1	0.000	
22	 C15	-7.083	34.410	-2.230	C.3	1	RES1	0.000	
23	 C48	-5.659	34.325	-2.866	C.3	1	RES1	0.000	
24	 C49	-4.991	35.715	-2.708	C.3	1	RES1	0.000	
25	 C50	-5.724	33.990	-4.359	C.3	1	RES1	0.000	
26	 C51	-4.771	33.286	-2.148	C.3	1	RES1	0.000	
27	 C52	-6.208	34.368	5.901	C.2	1	RES1	0.000	
28	 C53	-5.984	33.570	7.045	C.2	1	RES1	0.000	
29	 C54	-4.369	31.114	10.560	C.2	1	RES1	0.000	
@<TRIPOS>BOND
1 1 5 1
2 2 14 1
3 2 15 1
4 3 15 2
5 4 8 ar
6 4 29 ar
7 5 8 ar
8 8 10 1
9 10 11 ar
10 10 28 ar
11 11 12 ar
12 12 13 ar
13 13 14 1
14 6 16 1
15 15 16 1
16 16 17 1
17 17 18 1
18 7 18 1
19 18 20 1
20 5 19 ar
21 19 29 ar
22 6 20 1
23 6 21 1
24 9 21 2
25 21 22 1
26 22 23 1
27 23 24 1
28 23 25 1
29 23 26 1
30 13 27 ar
31 27 28 ar
@<TRIPOS>SUBSTRUCTURE
1	RES1	1	GROUP	1 ****	RES
