# created with PyMOL 2.5.2
@<TRIPOS>MOLECULE
EGFR_4W9F_E3ligase
29 31 1                 
SMALL
USER_CHARGES
@<TRIPOS>ATOM
1	  C1	-3.389	34.370	10.472	C.3	1	RES1	0.000	
2	  N1	-6.413	35.815	3.297	N.pl3	1	RES1	0.000	
3	  O1	-5.247	34.367	1.956	O.2	1	RES1	0.000	
4	  S1	-5.290	31.282	8.727	S.2	1	RES1	0.000	
5	  C2	-4.100	33.119	10.011	C.2	1	RES1	0.000	
6	  N2	-7.489	33.954	0.258	N.pl3	1	RES1	0.000	
7	  O2	-8.734	31.022	1.890	O.3	1	RES1	0.000	
8	  C3	-4.696	32.921	8.801	C.2	1	RES1	0.000	
9	  O3	-7.158	35.990	-0.726	O.2	1	RES1	0.000	
10	  C4	-4.875	33.778	7.639	C.2	1	RES1	0.000	
11	  C5	-3.794	34.536	7.157	C.2	1	RES1	0.000	
12	  C6	-3.916	35.335	6.029	C.2	1	RES1	0.000	
13	  C7	-5.111	35.397	5.320	C.2	1	RES1	0.000	
14	  C8	-5.254	36.265	4.066	C.3	1	RES1	0.000	
15	  C9	-6.311	34.857	2.297	C.2	1	RES1	0.000	
16	 C10	-7.646	34.482	1.602	C.3	1	RES1	0.000	
17	 C11	-8.310	33.359	2.388	C.3	1	RES1	0.000	
18	 C12	-7.818	32.090	1.705	C.3	1	RES1	0.000	
19	 N12	-4.123	32.062	10.903	N.2	1	RES1	0.000	
20	 C13	-7.716	32.499	0.232	C.3	1	RES1	0.000	
21	 C14	-7.265	34.763	-0.829	C.2	1	RES1	0.000	
22	 C15	-7.133	34.070	-2.184	C.3	1	RES1	0.000	
23	 C50	-5.748	34.148	-2.912	C.3	1	RES1	0.000	
24	 C51	-5.559	35.547	-3.433	C.3	1	RES1	0.000	
25	 C52	-5.716	33.159	-4.113	C.3	1	RES1	0.000	
26	 C53	-4.606	33.806	-1.928	C.3	1	RES1	0.000	
27	 C54	-6.200	34.652	5.778	C.2	1	RES1	0.000	
28	 C55	-6.076	33.857	6.920	C.2	1	RES1	0.000	
29	 C56	-4.759	31.055	10.339	C.2	1	RES1	0.000	
@<TRIPOS>BOND
1 1 5 1
2 2 14 1
3 2 15 1
4 3 15 2
5 4 8 ar
6 4 29 ar
7 5 8 ar
8 8 10 1
9 10 11 ar
10 10 28 ar
11 11 12 ar
12 12 13 ar
13 13 14 1
14 6 16 1
15 15 16 1
16 16 17 1
17 17 18 1
18 7 18 1
19 18 20 1
20 5 19 ar
21 19 29 ar
22 6 20 1
23 6 21 1
24 9 21 2
25 21 22 1
26 22 23 1
27 23 24 1
28 23 25 1
29 23 26 1
30 13 27 ar
31 27 28 ar
@<TRIPOS>SUBSTRUCTURE
1	RES1	1	GROUP	1 ****	RES
