# created with PyMOL 2.5.2
@<TRIPOS>MOLECULE
EGFR_4W9F_E3ligase
29 31 1                 
SMALL
USER_CHARGES
@<TRIPOS>ATOM
1	  C1	-3.405	34.460	10.633	C.3	1	RES1	0.000	
2	  N1	-6.548	35.564	3.334	N.pl3	1	RES1	0.000	
3	  O1	-5.233	34.359	1.905	O.2	1	RES1	0.000	
4	  S1	-5.012	31.261	8.832	S.2	1	RES1	0.000	
5	  C2	-3.936	33.185	10.115	C.2	1	RES1	0.000	
6	  N2	-7.417	33.770	0.235	N.pl3	1	RES1	0.000	
7	  O2	-10.009	32.409	0.941	O.3	1	RES1	0.000	
8	  C3	-4.522	32.949	8.896	C.2	1	RES1	0.000	
9	  O3	-6.990	35.917	-0.453	O.2	1	RES1	0.000	
10	  C4	-4.759	33.807	7.725	C.2	1	RES1	0.000	
11	  C5	-6.007	33.717	7.038	C.2	1	RES1	0.000	
12	  C6	-6.238	34.484	5.901	C.2	1	RES1	0.000	
13	  C7	-5.237	35.320	5.389	C.2	1	RES1	0.000	
14	  C8	-5.467	36.136	4.120	C.3	1	RES1	0.000	
15	  C9	-6.331	34.647	2.322	C.2	1	RES1	0.000	
16	 C10	-7.623	34.138	1.624	C.3	1	RES1	0.000	
17	 C11	-8.070	32.833	2.301	C.3	1	RES1	0.000	
18	 C12	-8.654	32.018	1.168	C.3	1	RES1	0.000	
19	 N12	-3.864	32.115	10.984	N.2	1	RES1	0.000	
20	 C13	-7.808	32.408	-0.047	C.3	1	RES1	0.000	
21	 C14	-7.139	34.746	-0.745	C.2	1	RES1	0.000	
22	 C15	-7.022	34.238	-2.176	C.3	1	RES1	0.000	
23	 C50	-5.607	34.252	-2.827	C.3	1	RES1	0.000	
24	 C51	-5.077	35.683	-2.996	C.3	1	RES1	0.000	
25	 C52	-5.733	33.610	-4.220	C.3	1	RES1	0.000	
26	 C53	-4.594	33.429	-1.998	C.3	1	RES1	0.000	
27	 C54	-3.986	35.391	6.058	C.2	1	RES1	0.000	
28	 C55	-3.774	34.644	7.199	C.2	1	RES1	0.000	
29	 C56	-4.393	31.066	10.404	C.2	1	RES1	0.000	
@<TRIPOS>BOND
1 1 5 1
2 2 14 1
3 2 15 1
4 3 15 2
5 4 8 ar
6 4 29 ar
7 5 8 ar
8 8 10 1
9 10 11 ar
10 10 28 ar
11 11 12 ar
12 12 13 ar
13 13 14 1
14 6 16 1
15 15 16 1
16 16 17 1
17 17 18 1
18 7 18 1
19 18 20 1
20 5 19 ar
21 19 29 ar
22 6 20 1
23 6 21 1
24 9 21 2
25 21 22 1
26 22 23 1
27 23 24 1
28 23 25 1
29 23 26 1
30 13 27 ar
31 27 28 ar
@<TRIPOS>SUBSTRUCTURE
1	RES1	1	GROUP	1 ****	RES
