# created with PyMOL 2.5.2
@<TRIPOS>MOLECULE
EGFR_4W9F_E3ligase
29 31 1                 
SMALL
USER_CHARGES
@<TRIPOS>ATOM
1	  C1	-3.254	34.596	10.501	C.3	1	RES1	0.000	
2	  N1	-6.680	35.497	3.392	N.pl3	1	RES1	0.000	
3	  O1	-5.296	34.364	1.962	O.2	1	RES1	0.000	
4	  S1	-4.895	31.299	8.932	S.2	1	RES1	0.000	
5	  C2	-3.822	33.285	10.089	C.2	1	RES1	0.000	
6	  N2	-7.445	33.752	0.187	N.pl3	1	RES1	0.000	
7	  O2	-10.106	32.444	0.814	O.3	1	RES1	0.000	
8	  C3	-4.453	32.976	8.914	C.2	1	RES1	0.000	
9	  O3	-6.966	35.869	-0.511	O.2	1	RES1	0.000	
10	  C4	-4.784	33.794	7.758	C.2	1	RES1	0.000	
11	  C5	-3.833	34.687	7.207	C.2	1	RES1	0.000	
12	  C6	-4.129	35.451	6.073	C.2	1	RES1	0.000	
13	  C7	-5.386	35.303	5.431	C.2	1	RES1	0.000	
14	  C8	-5.658	36.096	4.184	C.3	1	RES1	0.000	
15	  C9	-6.403	34.628	2.338	C.2	1	RES1	0.000	
16	 C10	-7.658	34.140	1.577	C.3	1	RES1	0.000	
17	 C11	-8.211	32.883	2.253	C.3	1	RES1	0.000	
18	 C12	-8.758	32.051	1.124	C.3	1	RES1	0.000	
19	 N12	-3.708	32.236	11.011	N.2	1	RES1	0.000	
20	 C13	-7.815	32.364	-0.035	C.3	1	RES1	0.000	
21	 C14	-7.089	34.684	-0.791	C.2	1	RES1	0.000	
22	 C15	-6.934	34.134	-2.203	C.3	1	RES1	0.000	
23	 C50	-5.519	34.193	-2.812	C.3	1	RES1	0.000	
24	 C51	-5.148	35.618	-3.283	C.3	1	RES1	0.000	
25	 C52	-5.498	33.308	-4.096	C.3	1	RES1	0.000	
26	 C53	-4.439	33.680	-1.869	C.3	1	RES1	0.000	
27	 C54	-6.314	34.403	5.931	C.2	1	RES1	0.000	
28	 C55	-6.020	33.663	7.086	C.2	1	RES1	0.000	
29	 C56	-4.237	31.155	10.496	C.2	1	RES1	0.000	
@<TRIPOS>BOND
1 1 5 1
2 2 14 1
3 2 15 1
4 3 15 2
5 4 8 ar
6 4 29 ar
7 5 8 ar
8 8 10 1
9 10 11 ar
10 10 28 ar
11 11 12 ar
12 12 13 ar
13 13 14 1
14 6 16 1
15 15 16 1
16 16 17 1
17 17 18 1
18 7 18 1
19 18 20 1
20 5 19 ar
21 19 29 ar
22 6 20 1
23 6 21 1
24 9 21 2
25 21 22 1
26 22 23 1
27 23 24 1
28 23 25 1
29 23 26 1
30 13 27 ar
31 27 28 ar
@<TRIPOS>SUBSTRUCTURE
1	RES1	1	GROUP	1 ****	RES
