# created with PyMOL 2.5.2
@<TRIPOS>MOLECULE
BRD4_7BQU_E3ligase
19 21 1                 
SMALL
USER_CHARGES
@<TRIPOS>ATOM
1	  O4	27.393	17.211	11.951	O.2	1	RES1	0.000	
2	  O5	26.337	20.293	17.905	O.2	1	RES1	0.000	
3	  N6	25.407	17.690	13.141	N.2	1	RES1	0.000	
4	  O6	23.735	19.609	14.259	O.2	1	RES1	0.000	
5	  N7	25.079	19.900	16.057	N.pl3	1	RES1	0.000	
6	  O7	23.143	17.698	13.652	O.2	1	RES1	0.000	
7	 C23	25.561	15.501	10.225	C.2	1	RES1	0.000	
8	 C24	24.476	14.838	9.676	C.2	1	RES1	0.000	
9	 C25	23.148	14.985	10.175	C.2	1	RES1	0.000	
10	 C26	22.925	15.791	11.286	C.2	1	RES1	0.000	
11	 C27	24.013	16.439	11.861	C.2	1	RES1	0.000	
12	 C28	25.299	16.303	11.332	C.2	1	RES1	0.000	
13	 C29	26.193	17.115	12.163	C.2	1	RES1	0.000	
14	 C30	25.943	18.623	14.159	C.3	1	RES1	0.000	
15	 C31	26.841	17.968	15.201	C.3	1	RES1	0.000	
16	 C32	27.361	19.003	16.161	C.3	1	RES1	0.000	
17	 C33	26.229	19.767	16.815	C.2	1	RES1	0.000	
18	 C34	24.813	19.389	14.813	C.2	1	RES1	0.000	
19	 C35	24.100	17.327	13.009	C.2	1	RES1	0.000	
@<TRIPOS>BOND
1 7 8 ar
2 7 12 ar
3 8 9 ar
4 9 10 ar
5 10 11 ar
6 11 12 ar
7 11 19 ar
8 12 13 ar
9 1 13 2
10 3 13 ar
11 3 14 1
12 14 15 1
13 14 18 1
14 15 16 1
15 16 17 1
16 2 17 2
17 5 17 1
18 4 18 2
19 5 18 1
20 3 19 ar
21 6 19 2
@<TRIPOS>SUBSTRUCTURE
1	RES1	1	GROUP	1 ****	RES
