# created with PyMOL 2.5.2
@<TRIPOS>MOLECULE
EGFR_4W9F_E3ligase
29 31 1                 
SMALL
USER_CHARGES
@<TRIPOS>ATOM
1	  C1	-3.345	34.479	10.416	C.3	1	RES1	0.000	
2	  N1	-6.516	35.632	3.334	N.pl3	1	RES1	0.000	
3	  O1	-5.464	34.094	2.025	O.2	1	RES1	0.000	
4	  S1	-5.166	31.261	8.893	S.2	1	RES1	0.000	
5	  C2	-3.952	33.176	10.037	C.2	1	RES1	0.000	
6	  N2	-7.519	34.060	0.232	N.pl3	1	RES1	0.000	
7	  O2	-9.231	31.168	1.438	O.3	1	RES1	0.000	
8	  C3	-4.582	32.868	8.829	C.2	1	RES1	0.000	
9	  O3	-6.943	36.121	-0.584	O.2	1	RES1	0.000	
10	  C4	-4.798	33.675	7.637	C.2	1	RES1	0.000	
11	  C5	-6.014	33.720	6.960	C.2	1	RES1	0.000	
12	  C6	-6.196	34.505	5.825	C.2	1	RES1	0.000	
13	  C7	-5.131	35.261	5.317	C.2	1	RES1	0.000	
14	  C8	-5.343	36.082	4.051	C.3	1	RES1	0.000	
15	  C9	-6.470	34.691	2.325	C.2	1	RES1	0.000	
16	 C10	-7.782	34.508	1.585	C.3	1	RES1	0.000	
17	 C11	-8.680	33.454	2.172	C.3	1	RES1	0.000	
18	 C12	-8.214	32.154	1.461	C.3	1	RES1	0.000	
19	 N12	-3.923	32.168	10.952	N.2	1	RES1	0.000	
20	 C13	-7.838	32.646	0.103	C.3	1	RES1	0.000	
21	 C14	-7.128	34.921	-0.788	C.2	1	RES1	0.000	
22	 C15	-7.014	34.298	-2.187	C.3	1	RES1	0.000	
23	 C52	-5.613	34.191	-2.809	C.3	1	RES1	0.000	
24	 C53	-5.065	35.642	-2.953	C.3	1	RES1	0.000	
25	 C54	-5.669	33.591	-4.225	C.3	1	RES1	0.000	
26	 C55	-4.636	33.398	-1.943	C.3	1	RES1	0.000	
27	 C56	-3.921	35.233	5.966	C.2	1	RES1	0.000	
28	 C57	-3.730	34.469	7.102	C.2	1	RES1	0.000	
29	 C58	-4.570	31.094	10.493	C.2	1	RES1	0.000	
@<TRIPOS>BOND
1 1 5 1
2 2 14 1
3 2 15 1
4 3 15 2
5 4 8 ar
6 4 29 ar
7 5 8 ar
8 8 10 1
9 10 11 ar
10 10 28 ar
11 11 12 ar
12 12 13 ar
13 13 14 1
14 6 16 1
15 15 16 1
16 16 17 1
17 17 18 1
18 7 18 1
19 18 20 1
20 5 19 ar
21 19 29 ar
22 6 20 1
23 6 21 1
24 9 21 2
25 21 22 1
26 22 23 1
27 23 24 1
28 23 25 1
29 23 26 1
30 13 27 ar
31 27 28 ar
@<TRIPOS>SUBSTRUCTURE
1	RES1	1	GROUP	1 ****	RES
