# created with PyMOL 2.5.2
@<TRIPOS>MOLECULE
EGFR_4W9F_E3ligase
29 31 1                 
SMALL
USER_CHARGES
@<TRIPOS>ATOM
1	  C1	-3.346	34.400	10.596	C.3	1	RES1	0.000	
2	  N1	-6.521	35.630	3.374	N.pl3	1	RES1	0.000	
3	  O1	-5.170	34.256	2.161	O.2	1	RES1	0.000	
4	  S1	-5.060	31.269	8.773	S.2	1	RES1	0.000	
5	  C2	-3.966	33.146	10.081	C.2	1	RES1	0.000	
6	  N2	-7.355	33.795	0.250	N.pl3	1	RES1	0.000	
7	  O2	-9.908	32.363	0.850	O.3	1	RES1	0.000	
8	  C3	-4.553	32.914	8.852	C.2	1	RES1	0.000	
9	  O3	-7.116	35.914	-0.555	O.2	1	RES1	0.000	
10	  C4	-4.805	33.806	7.716	C.2	1	RES1	0.000	
11	  C5	-6.029	33.785	7.037	C.2	1	RES1	0.000	
12	  C6	-6.225	34.560	5.895	C.2	1	RES1	0.000	
13	  C7	-5.217	35.416	5.436	C.2	1	RES1	0.000	
14	  C8	-5.432	36.206	4.175	C.3	1	RES1	0.000	
15	  C9	-6.272	34.703	2.370	C.2	1	RES1	0.000	
16	 C10	-7.538	34.195	1.676	C.3	1	RES1	0.000	
17	 C11	-8.051	32.908	2.349	C.3	1	RES1	0.000	
18	 C12	-8.546	32.010	1.220	C.3	1	RES1	0.000	
19	 N12	-3.931	32.049	10.943	N.2	1	RES1	0.000	
20	 C13	-7.615	32.375	0.065	C.3	1	RES1	0.000	
21	 C14	-7.180	34.730	-0.771	C.2	1	RES1	0.000	
22	 C15	-7.061	34.158	-2.198	C.3	1	RES1	0.000	
23	 C52	-5.673	34.227	-2.884	C.3	1	RES1	0.000	
24	 C53	-5.235	35.676	-3.133	C.3	1	RES1	0.000	
25	 C54	-5.803	33.513	-4.243	C.3	1	RES1	0.000	
26	 C55	-4.603	33.487	-2.043	C.3	1	RES1	0.000	
27	 C56	-3.977	35.439	6.091	C.2	1	RES1	0.000	
28	 C57	-3.770	34.623	7.223	C.2	1	RES1	0.000	
29	 C58	-4.496	31.006	10.352	C.2	1	RES1	0.000	
@<TRIPOS>BOND
1 1 5 1
2 2 14 1
3 2 15 1
4 3 15 2
5 4 8 ar
6 4 29 ar
7 5 8 ar
8 8 10 1
9 10 11 ar
10 10 28 ar
11 11 12 ar
12 12 13 ar
13 13 14 1
14 6 16 1
15 15 16 1
16 16 17 1
17 17 18 1
18 7 18 1
19 18 20 1
20 5 19 ar
21 19 29 ar
22 6 20 1
23 6 21 1
24 9 21 2
25 21 22 1
26 22 23 1
27 23 24 1
28 23 25 1
29 23 26 1
30 13 27 ar
31 27 28 ar
@<TRIPOS>SUBSTRUCTURE
1	RES1	1	GROUP	1 ****	RES
