# created with PyMOL 2.5.2
@<TRIPOS>MOLECULE
EGFR_4W9F_E3ligase
29 31 1                 
SMALL
USER_CHARGES
@<TRIPOS>ATOM
1	  C1	-3.242	34.392	10.389	C.3	1	RES1	0.000	
2	  N1	-6.450	35.682	3.286	N.pl3	1	RES1	0.000	
3	  O1	-5.375	34.120	1.996	O.2	1	RES1	0.000	
4	  S1	-5.373	31.298	8.936	S.2	1	RES1	0.000	
5	  C2	-3.984	33.140	10.015	C.2	1	RES1	0.000	
6	  N2	-7.510	34.002	0.230	N.pl3	1	RES1	0.000	
7	  O2	-9.039	31.104	1.609	O.3	1	RES1	0.000	
8	  C3	-4.623	32.876	8.835	C.2	1	RES1	0.000	
9	  O3	-7.056	36.079	-0.663	O.2	1	RES1	0.000	
10	  C4	-4.792	33.681	7.607	C.2	1	RES1	0.000	
11	  C5	-6.047	33.775	6.974	C.2	1	RES1	0.000	
12	  C6	-6.200	34.552	5.803	C.2	1	RES1	0.000	
13	  C7	-5.132	35.294	5.302	C.2	1	RES1	0.000	
14	  C8	-5.283	36.081	4.071	C.3	1	RES1	0.000	
15	  C9	-6.367	34.723	2.289	C.2	1	RES1	0.000	
16	 C10	-7.729	34.505	1.578	C.3	1	RES1	0.000	
17	 C11	-8.551	33.408	2.233	C.3	1	RES1	0.000	
18	 C12	-8.046	32.127	1.555	C.3	1	RES1	0.000	
19	 N12	-3.997	32.117	10.962	N.2	1	RES1	0.000	
20	 C13	-7.823	32.601	0.126	C.3	1	RES1	0.000	
21	 C14	-7.224	34.889	-0.848	C.2	1	RES1	0.000	
22	 C15	-7.092	34.288	-2.249	C.3	1	RES1	0.000	
23	 C52	-5.657	34.286	-2.818	C.3	1	RES1	0.000	
24	 C53	-5.141	35.711	-3.050	C.3	1	RES1	0.000	
25	 C54	-5.709	33.568	-4.165	C.3	1	RES1	0.000	
26	 C55	-4.706	33.516	-1.899	C.3	1	RES1	0.000	
27	 C56	-3.879	35.201	5.966	C.2	1	RES1	0.000	
28	 C57	-3.731	34.411	7.110	C.2	1	RES1	0.000	
29	 C58	-4.695	31.131	10.484	C.2	1	RES1	0.000	
@<TRIPOS>BOND
1 1 5 1
2 2 14 1
3 2 15 1
4 3 15 2
5 4 8 ar
6 4 29 ar
7 5 8 ar
8 8 10 1
9 10 11 ar
10 10 28 ar
11 11 12 ar
12 12 13 ar
13 13 14 1
14 6 16 1
15 15 16 1
16 16 17 1
17 17 18 1
18 7 18 1
19 18 20 1
20 5 19 ar
21 19 29 ar
22 6 20 1
23 6 21 1
24 9 21 2
25 21 22 1
26 22 23 1
27 23 24 1
28 23 25 1
29 23 26 1
30 13 27 ar
31 27 28 ar
@<TRIPOS>SUBSTRUCTURE
1	RES1	1	GROUP	1 ****	RES
