# created with PyMOL 2.5.2
@<TRIPOS>MOLECULE
CDK6_4W9H_E3ligase
33 35 1                 
SMALL
USER_CHARGES
@<TRIPOS>ATOM
1	  S1	15.493	51.401	82.155	S.2	1	RES1	0.000	
2	  O2	12.441	56.233	94.714	O.2	1	RES1	0.000	
3	  O3	10.617	53.668	91.429	O.2	1	RES1	0.000	
4	  O4	14.121	56.721	90.123	O.3	1	RES1	0.000	
5	  N5	11.096	54.504	94.027	N.pl3	1	RES1	0.000	
6	  O5	12.347	51.857	89.215	O.2	1	RES1	0.000	
7	  N6	12.788	54.107	90.887	N.pl3	1	RES1	0.000	
8	  N7	11.198	53.079	87.677	N.pl3	1	RES1	0.000	
9	  N8	14.569	50.309	80.031	N.2	1	RES1	0.000	
10	 C21	10.128	56.341	95.264	C.3	1	RES1	0.000	
11	 C22	11.339	55.726	94.657	C.2	1	RES1	0.000	
12	 C23	12.113	53.783	93.327	C.3	1	RES1	0.000	
13	 C24	11.763	53.841	91.815	C.2	1	RES1	0.000	
14	 C25	14.139	54.541	91.180	C.3	1	RES1	0.000	
15	 C26	14.541	55.362	89.962	C.3	1	RES1	0.000	
16	 C27	13.793	54.707	88.826	C.3	1	RES1	0.000	
17	 C28	12.476	54.250	89.461	C.3	1	RES1	0.000	
18	 C29	12.053	52.942	88.766	C.2	1	RES1	0.000	
19	 C30	10.671	51.973	86.933	C.3	1	RES1	0.000	
20	 C31	11.470	51.741	85.658	C.2	1	RES1	0.000	
21	 C32	12.292	52.713	85.153	C.2	1	RES1	0.000	
22	 C33	13.053	52.491	84.002	C.2	1	RES1	0.000	
23	 C34	12.990	51.277	83.335	C.2	1	RES1	0.000	
24	 C35	13.805	50.986	82.157	C.2	1	RES1	0.000	
25	 C36	13.513	50.406	80.946	C.2	1	RES1	0.000	
26	 C37	12.202	49.850	80.486	C.3	1	RES1	0.000	
27	 C38	15.639	50.820	80.580	C.2	1	RES1	0.000	
28	 C39	12.137	50.251	83.852	C.2	1	RES1	0.000	
29	 C40	11.389	50.498	85.021	C.2	1	RES1	0.000	
30	 C41	12.262	52.298	93.853	C.3	1	RES1	0.000	
31	 C42	13.223	51.448	92.996	C.3	1	RES1	0.000	
32	 C43	12.803	52.272	95.298	C.3	1	RES1	0.000	
33	 C44	10.904	51.613	93.845	C.3	1	RES1	0.000	
@<TRIPOS>BOND
1 1 24 ar
2 1 27 ar
3 2 11 2
4 10 11 1
5 5 11 1
6 5 12 1
7 12 13 1
8 12 30 1
9 3 13 2
10 7 13 1
11 7 14 1
12 14 15 1
13 4 15 1
14 15 16 1
15 16 17 1
16 7 17 1
17 17 18 1
18 6 18 2
19 8 18 1
20 8 19 1
21 19 20 1
22 20 21 ar
23 20 29 ar
24 21 22 ar
25 22 23 ar
26 23 24 1
27 23 28 ar
28 24 25 ar
29 9 25 ar
30 25 26 1
31 9 27 ar
32 28 29 ar
33 30 31 1
34 30 32 1
35 30 33 1
@<TRIPOS>SUBSTRUCTURE
1	RES1	1	GROUP	1 ****	RES
