# created with PyMOL 2.5.2
@<TRIPOS>MOLECULE
CDK6_5NVV_E3ligase
34 36 1                 
SMALL
USER_CHARGES
@<TRIPOS>ATOM
1	  S1	15.883	51.677	82.395	S.2	1	RES1	0.000	
2	  O3	10.516	57.498	96.047	O.3	1	RES1	0.000	
3	  O4	12.651	56.315	94.763	O.2	1	RES1	0.000	
4	  N5	11.453	54.428	94.201	N.pl3	1	RES1	0.000	
5	  O5	10.960	53.686	91.622	O.2	1	RES1	0.000	
6	  N6	13.100	54.159	91.043	N.pl3	1	RES1	0.000	
7	  O6	14.471	56.758	90.316	O.3	1	RES1	0.000	
8	  N7	11.456	53.182	87.891	N.pl3	1	RES1	0.000	
9	  O7	12.794	51.899	89.283	O.2	1	RES1	0.000	
10	  N8	14.992	50.484	80.301	N.2	1	RES1	0.000	
11	 C19	10.321	56.189	95.458	C.3	1	RES1	0.000	
12	 C20	11.599	55.673	94.803	C.2	1	RES1	0.000	
13	 C21	12.523	53.756	93.453	C.3	1	RES1	0.000	
14	 C22	12.117	53.863	91.979	C.2	1	RES1	0.000	
15	 C23	14.502	54.524	91.308	C.3	1	RES1	0.000	
16	 C24	14.864	55.399	90.109	C.3	1	RES1	0.000	
17	 C25	14.067	54.821	88.959	C.3	1	RES1	0.000	
18	 C26	12.766	54.321	89.643	C.3	1	RES1	0.000	
19	 C27	12.347	53.003	88.945	C.2	1	RES1	0.000	
20	 C28	10.985	52.059	87.140	C.3	1	RES1	0.000	
21	 C29	11.846	51.836	85.916	C.2	1	RES1	0.000	
22	 C30	12.682	52.830	85.409	C.2	1	RES1	0.000	
23	 C31	13.450	52.631	84.283	C.2	1	RES1	0.000	
24	 C32	13.423	51.402	83.591	C.2	1	RES1	0.000	
25	 C33	14.259	51.182	82.417	C.2	1	RES1	0.000	
26	 C34	13.947	50.558	81.211	C.2	1	RES1	0.000	
27	 C35	12.661	49.979	80.767	C.3	1	RES1	0.000	
28	 C36	16.061	51.061	80.800	C.2	1	RES1	0.000	
29	 C37	12.587	50.391	84.114	C.2	1	RES1	0.000	
30	 C38	11.809	50.592	85.223	C.2	1	RES1	0.000	
31	 C39	12.763	52.309	93.954	C.3	1	RES1	0.000	
32	 C40	13.641	51.471	93.013	C.3	1	RES1	0.000	
33	 C41	13.435	52.346	95.331	C.3	1	RES1	0.000	
34	 C42	11.421	51.571	94.121	C.3	1	RES1	0.000	
@<TRIPOS>BOND
1 1 25 ar
2 1 28 ar
3 2 11 1
4 11 12 1
5 3 12 2
6 4 12 1
7 4 13 1
8 13 14 1
9 13 31 1
10 5 14 2
11 6 14 1
12 6 15 1
13 15 16 1
14 7 16 1
15 16 17 1
16 17 18 1
17 6 18 1
18 18 19 1
19 8 19 1
20 9 19 2
21 8 20 1
22 20 21 1
23 21 22 ar
24 21 30 ar
25 22 23 ar
26 23 24 ar
27 24 25 1
28 24 29 ar
29 25 26 ar
30 10 26 ar
31 26 27 1
32 10 28 ar
33 29 30 ar
34 31 32 1
35 31 33 1
36 31 34 1
@<TRIPOS>SUBSTRUCTURE
1	RES1	1	GROUP	1 ****	RES
