# created with PyMOL 2.5.2
@<TRIPOS>MOLECULE
CDK6_5NVV_E3ligase
34 36 1                 
SMALL
USER_CHARGES
@<TRIPOS>ATOM
1	  S1	15.904	51.600	82.359	S.2	1	RES1	0.000	
2	  O4	10.448	57.444	96.045	O.3	1	RES1	0.000	
3	  N5	11.436	54.416	94.197	N.pl3	1	RES1	0.000	
4	  O5	12.613	56.279	94.814	O.2	1	RES1	0.000	
5	  N6	13.164	54.186	91.051	N.pl3	1	RES1	0.000	
6	  O6	11.001	53.661	91.584	O.2	1	RES1	0.000	
7	  N7	11.525	53.208	87.857	N.pl3	1	RES1	0.000	
8	  O7	14.423	56.856	90.347	O.3	1	RES1	0.000	
9	  N8	14.972	50.419	80.279	N.2	1	RES1	0.000	
10	  O8	12.747	51.944	89.356	O.2	1	RES1	0.000	
11	 C21	10.286	56.115	95.460	C.3	1	RES1	0.000	
12	 C22	11.564	55.617	94.804	C.2	1	RES1	0.000	
13	 C23	12.501	53.744	93.468	C.3	1	RES1	0.000	
14	 C24	12.138	53.867	91.976	C.2	1	RES1	0.000	
15	 C25	14.515	54.629	91.361	C.3	1	RES1	0.000	
16	 C26	14.877	55.519	90.172	C.3	1	RES1	0.000	
17	 C27	14.132	54.858	88.999	C.3	1	RES1	0.000	
18	 C28	12.830	54.343	89.621	C.3	1	RES1	0.000	
19	 C29	12.417	53.052	88.906	C.2	1	RES1	0.000	
20	 C30	10.995	52.100	87.108	C.3	1	RES1	0.000	
21	 C31	11.822	51.868	85.872	C.2	1	RES1	0.000	
22	 C32	11.769	50.640	85.204	C.2	1	RES1	0.000	
23	 C33	12.527	50.417	84.068	C.2	1	RES1	0.000	
24	 C34	13.423	51.393	83.599	C.2	1	RES1	0.000	
25	 C35	14.242	51.130	82.400	C.2	1	RES1	0.000	
26	 C36	13.929	50.519	81.196	C.2	1	RES1	0.000	
27	 C37	12.607	49.988	80.781	C.3	1	RES1	0.000	
28	 C38	16.057	50.958	80.793	C.2	1	RES1	0.000	
29	 C39	13.474	52.590	84.260	C.2	1	RES1	0.000	
30	 C40	12.688	52.869	85.374	C.2	1	RES1	0.000	
31	 C41	12.762	52.288	93.969	C.3	1	RES1	0.000	
32	 C42	13.441	52.312	95.366	C.3	1	RES1	0.000	
33	 C43	13.670	51.481	93.017	C.3	1	RES1	0.000	
34	 C44	11.453	51.538	94.137	C.3	1	RES1	0.000	
@<TRIPOS>BOND
1 1 25 ar
2 1 28 ar
3 2 11 1
4 11 12 1
5 3 12 1
6 4 12 2
7 3 13 1
8 13 14 1
9 13 31 1
10 5 14 1
11 6 14 2
12 5 15 1
13 15 16 1
14 8 16 1
15 16 17 1
16 17 18 1
17 5 18 1
18 18 19 1
19 7 19 1
20 10 19 2
21 7 20 1
22 20 21 1
23 21 22 ar
24 21 30 ar
25 22 23 ar
26 23 24 ar
27 24 25 1
28 24 29 ar
29 25 26 ar
30 9 26 ar
31 26 27 1
32 9 28 ar
33 29 30 ar
34 31 32 1
35 31 33 1
36 31 34 1
@<TRIPOS>SUBSTRUCTURE
1	RES1	1	GROUP	1 ****	RES
