# created with PyMOL 2.5.2
@<TRIPOS>MOLECULE
CDK6_4W9H_E3ligase
33 35 1                 
SMALL
USER_CHARGES
@<TRIPOS>ATOM
1	  S1	15.480	51.415	82.256	S.2	1	RES1	0.000	
2	  O4	12.443	56.273	94.704	O.2	1	RES1	0.000	
3	  N5	11.109	54.538	94.004	N.pl3	1	RES1	0.000	
4	  O5	10.611	53.701	91.423	O.2	1	RES1	0.000	
5	  N6	12.801	54.089	90.848	N.pl3	1	RES1	0.000	
6	  O6	14.097	56.706	90.006	O.3	1	RES1	0.000	
7	  N7	11.201	53.037	87.709	N.pl3	1	RES1	0.000	
8	  O7	12.289	51.823	89.333	O.2	1	RES1	0.000	
9	  N8	14.609	50.349	80.079	N.2	1	RES1	0.000	
10	 C29	10.117	56.341	95.223	C.3	1	RES1	0.000	
11	 C30	11.351	55.725	94.616	C.2	1	RES1	0.000	
12	 C31	12.163	53.756	93.302	C.3	1	RES1	0.000	
13	 C32	11.784	53.839	91.801	C.2	1	RES1	0.000	
14	 C33	14.165	54.542	91.160	C.3	1	RES1	0.000	
15	 C34	14.563	55.363	89.941	C.3	1	RES1	0.000	
16	 C35	13.834	54.650	88.796	C.3	1	RES1	0.000	
17	 C36	12.501	54.224	89.446	C.3	1	RES1	0.000	
18	 C37	12.044	52.906	88.784	C.2	1	RES1	0.000	
19	 C38	10.667	51.901	86.960	C.3	1	RES1	0.000	
20	 C39	11.435	51.679	85.701	C.2	1	RES1	0.000	
21	 C40	12.250	52.687	85.170	C.2	1	RES1	0.000	
22	 C41	13.015	52.492	84.035	C.2	1	RES1	0.000	
23	 C42	12.951	51.274	83.347	C.2	1	RES1	0.000	
24	 C43	13.795	51.033	82.180	C.2	1	RES1	0.000	
25	 C44	13.522	50.467	80.928	C.2	1	RES1	0.000	
26	 C45	12.206	50.016	80.432	C.3	1	RES1	0.000	
27	 C46	15.696	50.826	80.654	C.2	1	RES1	0.000	
28	 C47	12.120	50.242	83.865	C.2	1	RES1	0.000	
29	 C48	11.381	50.456	85.044	C.2	1	RES1	0.000	
30	 C49	12.299	52.303	93.820	C.3	1	RES1	0.000	
31	 C50	13.219	51.419	92.987	C.3	1	RES1	0.000	
32	 C51	12.760	52.281	95.273	C.3	1	RES1	0.000	
33	 C52	10.893	51.646	93.787	C.3	1	RES1	0.000	
@<TRIPOS>BOND
1 1 24 ar
2 1 27 ar
3 10 11 1
4 2 11 2
5 3 11 1
6 3 12 1
7 12 13 1
8 12 30 1
9 4 13 2
10 5 13 1
11 5 14 1
12 14 15 1
13 6 15 1
14 15 16 1
15 16 17 1
16 5 17 1
17 17 18 1
18 7 18 1
19 8 18 2
20 7 19 1
21 19 20 1
22 20 21 ar
23 20 29 ar
24 21 22 ar
25 22 23 ar
26 23 24 1
27 23 28 ar
28 24 25 ar
29 9 25 ar
30 25 26 1
31 9 27 ar
32 28 29 ar
33 30 31 1
34 30 32 1
35 30 33 1
@<TRIPOS>SUBSTRUCTURE
1	RES1	1	GROUP	1 ****	RES
