# created with PyMOL 2.5.2
@<TRIPOS>MOLECULE
CDK6_5LLI_E3ligase
37 40 1                 
SMALL
USER_CHARGES
@<TRIPOS>ATOM
1	  S1	15.981	52.451	83.290	S.2	1	RES1	0.000	
2	  N5	15.084	51.303	81.160	N.2	1	RES1	0.000	
3	  O5	13.087	52.761	90.216	O.2	1	RES1	0.000	
4	  N6	11.739	53.968	88.827	N.pl3	1	RES1	0.000	
5	  O6	14.709	57.581	91.280	O.3	1	RES1	0.000	
6	  N7	13.313	54.973	91.900	N.pl3	1	RES1	0.000	
7	  O7	11.123	54.620	92.364	O.2	1	RES1	0.000	
8	  N8	11.487	55.230	94.991	N.pl3	1	RES1	0.000	
9	  O8	12.672	56.927	96.005	O.2	1	RES1	0.000	
10	  N9	8.179	55.510	96.038	N.1	1	RES1	0.000	
11	 C21	12.775	53.600	86.273	C.2	1	RES1	0.000	
12	 C22	13.525	53.419	85.117	C.2	1	RES1	0.000	
13	 C23	13.499	52.183	84.456	C.2	1	RES1	0.000	
14	 C24	14.324	51.937	83.267	C.2	1	RES1	0.000	
15	 C25	14.022	51.329	82.060	C.2	1	RES1	0.000	
16	 C26	12.758	50.715	81.631	C.3	1	RES1	0.000	
17	 C27	16.150	51.853	81.703	C.2	1	RES1	0.000	
18	 C28	12.726	51.133	85.029	C.2	1	RES1	0.000	
19	 C29	12.010	51.330	86.194	C.2	1	RES1	0.000	
20	 C30	11.984	52.559	86.825	C.2	1	RES1	0.000	
21	 C31	11.216	52.810	88.101	C.3	1	RES1	0.000	
22	 C32	12.662	53.836	89.811	C.2	1	RES1	0.000	
23	 C33	13.090	55.184	90.453	C.3	1	RES1	0.000	
24	 C34	14.431	55.667	89.885	C.3	1	RES1	0.000	
25	 C35	15.153	56.253	91.075	C.3	1	RES1	0.000	
26	 C36	14.691	55.353	92.225	C.3	1	RES1	0.000	
27	 C37	12.263	54.757	92.782	C.2	1	RES1	0.000	
28	 C38	12.594	54.643	94.300	C.3	1	RES1	0.000	
29	 C39	11.582	56.391	95.796	C.2	1	RES1	0.000	
30	 C40	10.329	56.917	96.390	C.3	1	RES1	0.000	
31	 C41	9.148	56.156	96.204	C.1	1	RES1	0.000	
32	 C42	10.158	58.427	96.421	C.3	1	RES1	0.000	
33	 C43	10.432	57.667	97.690	C.3	1	RES1	0.000	
34	 C44	12.911	53.188	94.737	C.3	1	RES1	0.000	
35	 C45	11.684	52.259	94.749	C.3	1	RES1	0.000	
36	 C46	13.502	53.205	96.168	C.3	1	RES1	0.000	
37	 C47	13.988	52.562	93.801	C.3	1	RES1	0.000	
@<TRIPOS>BOND
1 1 14 ar
2 1 17 ar
3 11 12 ar
4 11 20 ar
5 12 13 ar
6 13 14 1
7 13 18 ar
8 14 15 ar
9 2 15 ar
10 15 16 1
11 2 17 ar
12 18 19 ar
13 19 20 ar
14 20 21 1
15 4 21 1
16 3 22 2
17 4 22 1
18 22 23 1
19 6 23 1
20 23 24 1
21 24 25 1
22 5 25 1
23 25 26 1
24 6 26 1
25 6 27 1
26 7 27 2
27 27 28 1
28 8 28 1
29 28 34 1
30 8 29 1
31 9 29 2
32 29 30 1
33 30 31 1
34 30 32 1
35 30 33 1
36 10 31 3
37 32 33 1
38 34 35 1
39 34 36 1
40 34 37 1
@<TRIPOS>SUBSTRUCTURE
1	RES1	1	GROUP	1 ****	RES
