# created with PyMOL 2.5.2
@<TRIPOS>MOLECULE
CDK6_5NVX_E3ligase
36 39 1                 
SMALL
USER_CHARGES
@<TRIPOS>ATOM
1	  S1	15.830	51.868	82.459	S.2	1	RES1	0.000	
2	  N5	15.039	50.633	80.370	N.2	1	RES1	0.000	
3	  O5	12.781	51.962	89.398	O.2	1	RES1	0.000	
4	  N6	11.447	53.182	88.009	N.pl3	1	RES1	0.000	
5	  O6	14.414	56.821	90.517	O.3	1	RES1	0.000	
6	  N7	13.095	54.182	91.114	N.pl3	1	RES1	0.000	
7	  O7	10.903	53.714	91.680	O.2	1	RES1	0.000	
8	  N8	11.365	54.505	94.259	N.pl3	1	RES1	0.000	
9	  O8	12.531	56.390	94.918	O.2	1	RES1	0.000	
10	 C21	11.753	50.617	85.298	C.2	1	RES1	0.000	
11	 C22	12.527	50.449	84.145	C.2	1	RES1	0.000	
12	 C23	13.379	51.451	83.652	C.2	1	RES1	0.000	
13	 C24	14.216	51.252	82.472	C.2	1	RES1	0.000	
14	 C25	13.948	50.640	81.254	C.2	1	RES1	0.000	
15	 C26	12.695	50.037	80.789	C.3	1	RES1	0.000	
16	 C27	16.069	51.246	80.899	C.2	1	RES1	0.000	
17	 C28	13.441	52.627	84.403	C.2	1	RES1	0.000	
18	 C29	12.663	52.831	85.544	C.2	1	RES1	0.000	
19	 C30	11.788	51.831	86.006	C.2	1	RES1	0.000	
20	 C31	10.959	52.068	87.231	C.3	1	RES1	0.000	
21	 C32	12.381	53.045	89.039	C.2	1	RES1	0.000	
22	 C33	12.786	54.370	89.690	C.3	1	RES1	0.000	
23	 C34	14.079	54.914	89.088	C.3	1	RES1	0.000	
24	 C35	14.824	55.463	90.245	C.3	1	RES1	0.000	
25	 C36	14.459	54.586	91.401	C.3	1	RES1	0.000	
26	 C37	12.074	53.930	92.045	C.2	1	RES1	0.000	
27	 C38	12.460	53.844	93.533	C.3	1	RES1	0.000	
28	 C39	11.505	55.735	94.911	C.2	1	RES1	0.000	
29	 C40	10.256	56.191	95.593	C.3	1	RES1	0.000	
30	 C41	10.352	56.947	96.906	C.3	1	RES1	0.000	
31	 C42	9.959	57.676	95.645	C.3	1	RES1	0.000	
32	 C43	12.718	52.414	94.024	C.3	1	RES1	0.000	
33	 C44	11.456	51.496	93.963	C.3	1	RES1	0.000	
34	 C45	13.216	52.425	95.469	C.3	1	RES1	0.000	
35	 C46	13.823	51.738	93.175	C.3	1	RES1	0.000	
36	  F1	9.137	55.355	95.454	 F	1	RES1	0.000	
@<TRIPOS>BOND
1 1 13 ar
2 1 16 ar
3 10 11 ar
4 10 19 ar
5 11 12 ar
6 12 13 1
7 12 17 ar
8 13 14 ar
9 2 14 ar
10 14 15 1
11 2 16 ar
12 17 18 ar
13 18 19 ar
14 19 20 1
15 4 20 1
16 3 21 2
17 4 21 1
18 21 22 1
19 6 22 1
20 22 23 1
21 23 24 1
22 5 24 1
23 24 25 1
24 6 25 1
25 6 26 1
26 7 26 2
27 26 27 1
28 8 27 1
29 27 32 1
30 8 28 1
31 9 28 2
32 28 29 1
33 29 30 1
34 29 31 1
35 30 31 1
36 32 33 1
37 32 34 1
38 32 35 1
39 29 36 1
@<TRIPOS>SUBSTRUCTURE
1	RES1	1	GROUP	1 ****	RES
