# created with PyMOL 2.5.2
@<TRIPOS>MOLECULE
BRAF_4W9H_E3ligase
33 35 1                 
SMALL
USER_CHARGES
@<TRIPOS>ATOM
1	  C1	12.427	50.074	80.241	C.3	1	RES1	0.000	
2	  N1	11.029	53.024	87.566	N.pl3	1	RES1	0.000	
3	  O1	11.785	51.515	89.115	O.2	1	RES1	0.000	
4	  C2	13.710	50.527	80.842	C.2	1	RES1	0.000	
5	  N2	12.247	53.667	90.966	N.pl3	1	RES1	0.000	
6	  O2	14.357	55.771	90.677	O.3	1	RES1	0.000	
7	  C3	13.939	51.020	82.101	C.2	1	RES1	0.000	
8	  N3	10.665	54.563	94.016	N.3	1	RES1	0.000	
9	  O3	10.040	54.074	91.393	O.2	1	RES1	0.000	
10	  S3	15.615	51.406	82.261	S.2	1	RES1	0.000	
11	  C4	13.020	51.283	83.241	C.2	1	RES1	0.000	
12	  O4	12.574	55.527	94.874	O.3	1	RES1	0.000	
13	  C5	12.027	50.388	83.612	C.2	1	RES1	0.000	
14	  C6	11.197	50.639	84.702	C.2	1	RES1	0.000	
15	  C7	11.366	51.814	85.458	C.2	1	RES1	0.000	
16	  C8	10.481	52.066	86.662	C.3	1	RES1	0.000	
17	  C9	11.665	52.678	88.733	C.2	1	RES1	0.000	
18	 C10	12.233	53.885	89.513	C.3	1	RES1	0.000	
19	 N10	14.847	50.407	80.022	N.2	1	RES1	0.000	
20	 C11	13.728	54.028	89.123	C.3	1	RES1	0.000	
21	 C12	14.426	54.356	90.430	C.3	1	RES1	0.000	
22	 C13	13.593	53.583	91.474	C.3	1	RES1	0.000	
23	 C14	11.135	53.754	91.831	C.2	1	RES1	0.000	
24	 C15	11.318	53.436	93.309	C.3	1	RES1	0.000	
25	 C16	11.360	55.518	94.720	C.3	1	RES1	0.000	
26	 C17	10.454	56.551	95.353	C.3	1	RES1	0.000	
27	 C49	12.774	53.188	93.792	C.3	1	RES1	0.000	
28	 C50	12.883	52.943	95.312	C.3	1	RES1	0.000	
29	 C51	13.365	51.958	93.072	C.3	1	RES1	0.000	
30	 C52	13.641	54.405	93.444	C.3	1	RES1	0.000	
31	 C53	12.368	52.697	85.108	C.2	1	RES1	0.000	
32	 C54	13.205	52.434	83.997	C.2	1	RES1	0.000	
33	 C55	15.892	50.835	80.677	C.2	1	RES1	0.000	
@<TRIPOS>BOND
1 1 4 1
2 2 16 1
3 2 17 1
4 3 17 2
5 4 7 ar
6 7 10 ar
7 7 11 1
8 10 33 ar
9 11 13 ar
10 11 32 ar
11 13 14 ar
12 14 15 ar
13 15 16 1
14 5 18 1
15 17 18 1
16 18 20 1
17 4 19 ar
18 19 33 ar
19 20 21 1
20 6 21 1
21 21 22 1
22 5 22 1
23 5 23 1
24 9 23 2
25 23 24 1
26 8 24 1
27 24 27 1
28 8 25 1
29 12 25 1
30 25 26 1
31 27 28 1
32 27 29 1
33 27 30 1
34 15 31 ar
35 31 32 ar
@<TRIPOS>SUBSTRUCTURE
1	RES1	1	GROUP	1 ****	RES
