# created with PyMOL 2.5.2
@<TRIPOS>MOLECULE
BRD4_7BQU_E3ligase
19 21 1                 
SMALL
USER_CHARGES
@<TRIPOS>ATOM
1	  O4	27.404	17.213	11.960	O.2	1	RES1	0.000	
2	  O5	26.370	20.287	17.918	O.2	1	RES1	0.000	
3	  N6	25.416	17.697	13.147	N.2	1	RES1	0.000	
4	  O6	23.708	19.565	14.303	O.2	1	RES1	0.000	
5	  N7	25.086	19.855	16.086	N.pl3	1	RES1	0.000	
6	  O7	23.095	17.719	13.623	O.2	1	RES1	0.000	
7	 C23	25.549	15.502	10.258	C.2	1	RES1	0.000	
8	 C24	24.487	14.820	9.665	C.2	1	RES1	0.000	
9	 C25	23.172	14.959	10.175	C.2	1	RES1	0.000	
10	 C26	22.944	15.783	11.278	C.2	1	RES1	0.000	
11	 C27	24.018	16.447	11.842	C.2	1	RES1	0.000	
12	 C28	25.287	16.296	11.346	C.2	1	RES1	0.000	
13	 C29	26.187	17.135	12.172	C.2	1	RES1	0.000	
14	 C30	25.939	18.643	14.151	C.3	1	RES1	0.000	
15	 C31	26.856	17.978	15.170	C.3	1	RES1	0.000	
16	 C32	27.390	19.050	16.111	C.3	1	RES1	0.000	
17	 C33	26.232	19.782	16.807	C.2	1	RES1	0.000	
18	 C34	24.787	19.362	14.837	C.2	1	RES1	0.000	
19	 C35	24.069	17.362	12.991	C.2	1	RES1	0.000	
@<TRIPOS>BOND
1 7 8 ar
2 7 12 ar
3 8 9 ar
4 9 10 ar
5 10 11 ar
6 11 12 ar
7 11 19 ar
8 12 13 ar
9 1 13 2
10 3 13 ar
11 3 14 1
12 14 15 1
13 14 18 1
14 15 16 1
15 16 17 1
16 2 17 2
17 5 17 1
18 4 18 2
19 5 18 1
20 3 19 ar
21 6 19 2
@<TRIPOS>SUBSTRUCTURE
1	RES1	1	GROUP	1 ****	RES
