# created with PyMOL 2.5.2
@<TRIPOS>MOLECULE
WDR5_4W9H_E3ligase
33 35 1                 
SMALL
USER_CHARGES
@<TRIPOS>ATOM
1	  C1	12.498	49.940	80.464	C.3	1	RES1	0.000	
2	  N1	10.924	52.721	87.749	N.pl3	1	RES1	0.000	
3	  O1	12.343	51.763	89.259	O.2	1	RES1	0.000	
4	  S1	15.423	51.977	82.311	S.2	1	RES1	0.000	
5	  C2	13.686	50.652	80.981	C.2	1	RES1	0.000	
6	  N2	12.540	54.097	90.819	N.pl3	1	RES1	0.000	
7	  O2	15.495	55.496	89.371	O.3	1	RES1	0.000	
8	  C3	13.854	51.208	82.235	C.2	1	RES1	0.000	
9	  N3	11.150	54.692	94.077	N.pl3	1	RES1	0.000	
10	  O3	10.406	53.810	91.608	O.2	1	RES1	0.000	
11	  C4	12.976	51.278	83.415	C.2	1	RES1	0.000	
12	  O4	12.560	56.435	94.604	O.2	1	RES1	0.000	
13	  C5	12.295	50.144	83.922	C.2	1	RES1	0.000	
14	  C6	11.505	50.254	85.042	C.2	1	RES1	0.000	
15	  C7	11.422	51.426	85.767	C.2	1	RES1	0.000	
16	  N7	14.751	50.772	80.109	N.2	1	RES1	0.000	
17	  C8	10.582	51.506	87.030	C.3	1	RES1	0.000	
18	  C9	11.839	52.747	88.801	C.2	1	RES1	0.000	
19	 C10	12.102	54.136	89.403	C.3	1	RES1	0.000	
20	 C11	13.241	54.805	88.678	C.3	1	RES1	0.000	
21	 C12	14.460	54.492	89.538	C.3	1	RES1	0.000	
22	 C13	13.934	54.507	90.943	C.3	1	RES1	0.000	
23	 C14	11.581	53.945	91.838	C.2	1	RES1	0.000	
24	 C15	12.136	53.908	93.320	C.3	1	RES1	0.000	
25	 C16	11.463	55.919	94.645	C.2	1	RES1	0.000	
26	 C17	10.293	56.546	95.341	C.3	1	RES1	0.000	
27	 C42	12.296	52.459	93.877	C.3	1	RES1	0.000	
28	 C43	10.881	51.843	94.052	C.3	1	RES1	0.000	
29	 C44	12.934	52.505	95.293	C.3	1	RES1	0.000	
30	 C45	13.113	51.516	92.998	C.3	1	RES1	0.000	
31	 C46	12.087	52.581	85.275	C.2	1	RES1	0.000	
32	 C47	12.884	52.474	84.147	C.2	1	RES1	0.000	
33	 C48	15.719	51.455	80.723	C.2	1	RES1	0.000	
@<TRIPOS>BOND
1 1 5 1
2 2 17 1
3 2 18 1
4 3 18 2
5 4 8 ar
6 4 33 ar
7 5 8 ar
8 5 16 ar
9 8 11 1
10 11 13 ar
11 11 32 ar
12 13 14 ar
13 14 15 ar
14 15 17 1
15 6 19 1
16 18 19 1
17 19 20 1
18 20 21 1
19 7 21 1
20 21 22 1
21 6 22 1
22 6 23 1
23 10 23 2
24 23 24 1
25 9 24 1
26 24 27 1
27 9 25 1
28 12 25 2
29 25 26 1
30 27 28 1
31 27 29 1
32 27 30 1
33 15 31 ar
34 31 32 ar
35 16 33 ar
@<TRIPOS>SUBSTRUCTURE
1	RES1	1	GROUP	1 ****	RES
