# created with PyMOL 2.5.2
@<TRIPOS>MOLECULE
WDR5_4W9H_E3ligase
33 35 1                 
SMALL
USER_CHARGES
@<TRIPOS>ATOM
1	  C1	12.352	49.935	80.575	C.3	1	RES1	0.000	
2	  N1	11.082	52.831	87.778	N.pl3	1	RES1	0.000	
3	  O1	12.590	51.871	89.210	O.2	1	RES1	0.000	
4	  S1	15.533	51.805	82.115	S.2	1	RES1	0.000	
5	  C2	13.616	50.588	80.954	C.2	1	RES1	0.000	
6	  N2	12.489	54.141	90.857	N.pl3	1	RES1	0.000	
7	  O2	15.508	55.614	89.628	O.3	1	RES1	0.000	
8	  C3	13.923	51.148	82.179	C.2	1	RES1	0.000	
9	  N3	10.907	54.617	94.065	N.pl3	1	RES1	0.000	
10	  O3	10.350	53.751	91.507	O.2	1	RES1	0.000	
11	  C4	13.135	51.285	83.430	C.2	1	RES1	0.000	
12	  O4	12.194	56.424	94.711	O.2	1	RES1	0.000	
13	  C5	13.035	52.487	84.123	C.2	1	RES1	0.000	
14	  C6	12.274	52.600	85.271	C.2	1	RES1	0.000	
15	  C7	11.575	51.501	85.769	C.2	1	RES1	0.000	
16	  N7	14.615	50.626	80.008	N.2	1	RES1	0.000	
17	  C8	10.759	51.607	87.055	C.3	1	RES1	0.000	
18	  C9	11.986	52.837	88.820	C.2	1	RES1	0.000	
19	 C10	12.153	54.250	89.452	C.3	1	RES1	0.000	
20	 C11	13.299	55.031	88.832	C.3	1	RES1	0.000	
21	 C12	14.490	54.621	89.662	C.3	1	RES1	0.000	
22	 C13	13.893	54.440	91.079	C.3	1	RES1	0.000	
23	 C14	11.511	53.936	91.828	C.2	1	RES1	0.000	
24	 C15	11.963	53.904	93.325	C.3	1	RES1	0.000	
25	 C16	11.135	55.806	94.682	C.2	1	RES1	0.000	
26	 C17	9.900	56.367	95.341	C.3	1	RES1	0.000	
27	 C44	12.233	52.462	93.831	C.3	1	RES1	0.000	
28	 C45	12.618	52.485	95.319	C.3	1	RES1	0.000	
29	 C46	13.447	51.849	93.056	C.3	1	RES1	0.000	
30	 C47	11.042	51.483	93.650	C.3	1	RES1	0.000	
31	 C48	11.661	50.284	85.067	C.2	1	RES1	0.000	
32	 C49	12.413	50.179	83.943	C.2	1	RES1	0.000	
33	 C50	15.689	51.245	80.512	C.2	1	RES1	0.000	
@<TRIPOS>BOND
1 1 5 1
2 2 17 1
3 2 18 1
4 3 18 2
5 4 8 ar
6 4 33 ar
7 5 8 ar
8 5 16 ar
9 8 11 1
10 11 13 ar
11 11 32 ar
12 13 14 ar
13 14 15 ar
14 15 17 1
15 6 19 1
16 18 19 1
17 19 20 1
18 20 21 1
19 7 21 1
20 21 22 1
21 6 22 1
22 6 23 1
23 10 23 2
24 23 24 1
25 9 24 1
26 24 27 1
27 9 25 1
28 12 25 2
29 25 26 1
30 27 28 1
31 27 29 1
32 27 30 1
33 15 31 ar
34 31 32 ar
35 16 33 ar
@<TRIPOS>SUBSTRUCTURE
1	RES1	1	GROUP	1 ****	RES
