# created with PyMOL 2.5.2
@<TRIPOS>MOLECULE
WDR5_4W9H_E3ligase
33 35 1                 
SMALL
USER_CHARGES
@<TRIPOS>ATOM
1	  C1	12.282	49.920	80.384	C.3	1	RES1	0.000	
2	  N1	11.233	53.077	87.575	N.pl3	1	RES1	0.000	
3	  O1	12.279	51.754	89.131	O.2	1	RES1	0.000	
4	  S1	15.620	51.401	82.034	S.2	1	RES1	0.000	
5	  C2	13.588	50.445	80.808	C.2	1	RES1	0.000	
6	  N2	12.570	54.017	90.906	N.pl3	1	RES1	0.000	
7	  O2	14.038	56.580	90.341	O.3	1	RES1	0.000	
8	  C3	13.927	51.007	82.059	C.2	1	RES1	0.000	
9	  N3	11.025	54.546	94.128	N.pl3	1	RES1	0.000	
10	  O3	10.427	53.699	91.626	O.2	1	RES1	0.000	
11	  C4	13.130	51.238	83.251	C.2	1	RES1	0.000	
12	  O4	12.272	56.432	94.663	O.2	1	RES1	0.000	
13	  C5	12.252	50.284	83.746	C.2	1	RES1	0.000	
14	  C6	11.465	50.523	84.893	C.2	1	RES1	0.000	
15	  C7	11.567	51.744	85.541	C.2	1	RES1	0.000	
16	  N7	14.607	50.383	79.895	N.2	1	RES1	0.000	
17	  C8	10.727	51.980	86.782	C.3	1	RES1	0.000	
18	  C9	12.015	52.852	88.704	C.2	1	RES1	0.000	
19	 C10	12.401	54.149	89.458	C.3	1	RES1	0.000	
20	 C11	13.750	54.625	88.931	C.3	1	RES1	0.000	
21	 C12	14.458	55.221	90.155	C.3	1	RES1	0.000	
22	 C13	13.932	54.333	91.295	C.3	1	RES1	0.000	
23	 C14	11.598	53.824	91.901	C.2	1	RES1	0.000	
24	 C15	12.079	53.834	93.375	C.3	1	RES1	0.000	
25	 C16	11.225	55.784	94.683	C.2	1	RES1	0.000	
26	 C17	9.994	56.314	95.379	C.3	1	RES1	0.000	
27	 C46	12.287	52.379	93.955	C.3	1	RES1	0.000	
28	 C47	12.743	52.353	95.412	C.3	1	RES1	0.000	
29	 C48	13.355	51.640	93.117	C.3	1	RES1	0.000	
30	 C49	10.968	51.582	93.824	C.3	1	RES1	0.000	
31	 C50	12.422	52.719	85.037	C.2	1	RES1	0.000	
32	 C51	13.191	52.482	83.919	C.2	1	RES1	0.000	
33	 C52	15.746	50.861	80.419	C.2	1	RES1	0.000	
@<TRIPOS>BOND
1 1 5 1
2 2 17 1
3 2 18 1
4 3 18 2
5 4 8 ar
6 4 33 ar
7 5 8 ar
8 5 16 ar
9 8 11 1
10 11 13 ar
11 11 32 ar
12 13 14 ar
13 14 15 ar
14 15 17 1
15 6 19 1
16 18 19 1
17 19 20 1
18 20 21 1
19 7 21 1
20 21 22 1
21 6 22 1
22 6 23 1
23 10 23 2
24 23 24 1
25 9 24 1
26 24 27 1
27 9 25 1
28 12 25 2
29 25 26 1
30 27 28 1
31 27 29 1
32 27 30 1
33 15 31 ar
34 31 32 ar
35 16 33 ar
@<TRIPOS>SUBSTRUCTURE
1	RES1	1	GROUP	1 ****	RES
