# created with PyMOL 2.5.2
@<TRIPOS>MOLECULE
WDR5_4W9H_E3ligase
33 35 1                 
SMALL
USER_CHARGES
@<TRIPOS>ATOM
1	  C1	12.193	49.879	80.536	C.3	1	RES1	0.000	
2	  N1	11.165	53.071	87.661	N.pl3	1	RES1	0.000	
3	  O1	12.149	51.826	89.316	O.2	1	RES1	0.000	
4	  S1	15.508	51.485	82.122	S.2	1	RES1	0.000	
5	  C2	13.520	50.464	80.931	C.2	1	RES1	0.000	
6	  N2	12.758	54.085	90.878	N.pl3	1	RES1	0.000	
7	  O2	14.177	56.650	90.033	O.3	1	RES1	0.000	
8	  C3	13.850	50.984	82.173	C.2	1	RES1	0.000	
9	  N3	11.095	54.531	94.027	N.pl3	1	RES1	0.000	
10	  O3	10.602	53.723	91.431	O.2	1	RES1	0.000	
11	  C4	13.083	51.186	83.397	C.2	1	RES1	0.000	
12	  O4	12.467	56.280	94.655	O.2	1	RES1	0.000	
13	  C5	13.169	52.396	84.101	C.2	1	RES1	0.000	
14	  C6	12.403	52.643	85.232	C.2	1	RES1	0.000	
15	  C7	11.484	51.663	85.709	C.2	1	RES1	0.000	
16	  N7	14.524	50.457	79.986	N.2	1	RES1	0.000	
17	  C8	10.636	51.960	86.900	C.3	1	RES1	0.000	
18	  C9	11.971	52.891	88.794	C.2	1	RES1	0.000	
19	 C10	12.456	54.190	89.444	C.3	1	RES1	0.000	
20	 C11	13.775	54.631	88.771	C.3	1	RES1	0.000	
21	 C12	14.552	55.279	89.907	C.3	1	RES1	0.000	
22	 C13	14.128	54.490	91.133	C.3	1	RES1	0.000	
23	 C14	11.754	53.863	91.830	C.2	1	RES1	0.000	
24	 C15	12.132	53.789	93.304	C.3	1	RES1	0.000	
25	 C16	11.362	55.725	94.640	C.2	1	RES1	0.000	
26	 C17	10.159	56.369	95.280	C.3	1	RES1	0.000	
27	 C48	12.269	52.328	93.855	C.3	1	RES1	0.000	
28	 C49	10.893	51.664	93.909	C.3	1	RES1	0.000	
29	 C50	12.795	52.375	95.302	C.3	1	RES1	0.000	
30	 C51	13.211	51.433	93.038	C.3	1	RES1	0.000	
31	 C52	11.356	50.477	84.981	C.2	1	RES1	0.000	
32	 C53	12.154	50.243	83.867	C.2	1	RES1	0.000	
33	 C54	15.619	50.985	80.497	C.2	1	RES1	0.000	
@<TRIPOS>BOND
1 1 5 1
2 2 17 1
3 2 18 1
4 3 18 2
5 4 8 ar
6 4 33 ar
7 5 8 ar
8 5 16 ar
9 8 11 1
10 11 13 ar
11 11 32 ar
12 13 14 ar
13 14 15 ar
14 15 17 1
15 6 19 1
16 18 19 1
17 19 20 1
18 20 21 1
19 7 21 1
20 21 22 1
21 6 22 1
22 6 23 1
23 10 23 2
24 23 24 1
25 9 24 1
26 24 27 1
27 9 25 1
28 12 25 2
29 25 26 1
30 27 28 1
31 27 29 1
32 27 30 1
33 15 31 ar
34 31 32 ar
35 16 33 ar
@<TRIPOS>SUBSTRUCTURE
1	RES1	1	GROUP	1 ****	RES
