# created with PyMOL 2.5.2
@<TRIPOS>MOLECULE
WDR5_4W9H_E3ligase
33 35 1                 
SMALL
USER_CHARGES
@<TRIPOS>ATOM
1	  C1	12.251	49.950	80.459	C.3	1	RES1	0.000	
2	  N1	11.123	53.006	87.638	N.pl3	1	RES1	0.000	
3	  O1	12.338	51.763	89.158	O.2	1	RES1	0.000	
4	  S1	15.541	51.475	82.165	S.2	1	RES1	0.000	
5	  C2	13.543	50.447	80.929	C.2	1	RES1	0.000	
6	  N2	12.600	54.075	90.851	N.pl3	1	RES1	0.000	
7	  O2	14.103	56.563	90.219	O.3	1	RES1	0.000	
8	  C3	13.894	51.025	82.153	C.2	1	RES1	0.000	
9	  N3	11.162	54.597	94.083	N.pl3	1	RES1	0.000	
10	  O3	10.461	53.802	91.626	O.2	1	RES1	0.000	
11	  C4	13.040	51.260	83.304	C.2	1	RES1	0.000	
12	  O4	12.527	56.397	94.622	O.2	1	RES1	0.000	
13	  C5	13.055	52.491	84.031	C.2	1	RES1	0.000	
14	  C6	12.271	52.678	85.140	C.2	1	RES1	0.000	
15	  C7	11.444	51.674	85.636	C.2	1	RES1	0.000	
16	  N7	14.619	50.351	80.039	N.2	1	RES1	0.000	
17	  C8	10.622	51.887	86.886	C.3	1	RES1	0.000	
18	  C9	11.963	52.841	88.774	C.2	1	RES1	0.000	
19	 C10	12.366	54.190	89.413	C.3	1	RES1	0.000	
20	 C11	13.718	54.643	88.823	C.3	1	RES1	0.000	
21	 C12	14.461	55.192	90.001	C.3	1	RES1	0.000	
22	 C13	13.984	54.330	91.162	C.3	1	RES1	0.000	
23	 C14	11.671	53.891	91.862	C.2	1	RES1	0.000	
24	 C15	12.147	53.834	93.330	C.3	1	RES1	0.000	
25	 C16	11.445	55.819	94.673	C.2	1	RES1	0.000	
26	 C17	10.247	56.410	95.389	C.3	1	RES1	0.000	
27	 C50	12.328	52.360	93.868	C.3	1	RES1	0.000	
28	 C51	10.980	51.597	93.925	C.3	1	RES1	0.000	
29	 C52	12.960	52.345	95.228	C.3	1	RES1	0.000	
30	 C53	13.236	51.548	92.923	C.3	1	RES1	0.000	
31	 C54	11.396	50.459	84.939	C.2	1	RES1	0.000	
32	 C55	12.168	50.258	83.806	C.2	1	RES1	0.000	
33	 C56	15.706	50.851	80.575	C.2	1	RES1	0.000	
@<TRIPOS>BOND
1 1 5 1
2 2 17 1
3 2 18 1
4 3 18 2
5 4 8 ar
6 4 33 ar
7 5 8 ar
8 5 16 ar
9 8 11 1
10 11 13 ar
11 11 32 ar
12 13 14 ar
13 14 15 ar
14 15 17 1
15 6 19 1
16 18 19 1
17 19 20 1
18 20 21 1
19 7 21 1
20 21 22 1
21 6 22 1
22 6 23 1
23 10 23 2
24 23 24 1
25 9 24 1
26 24 27 1
27 9 25 1
28 12 25 2
29 25 26 1
30 27 28 1
31 27 29 1
32 27 30 1
33 15 31 ar
34 31 32 ar
35 16 33 ar
@<TRIPOS>SUBSTRUCTURE
1	RES1	1	GROUP	1 ****	RES
