# created with PyMOL 2.5.2
@<TRIPOS>MOLECULE
WDR5_4W9H_E3ligase
33 35 1                 
SMALL
USER_CHARGES
@<TRIPOS>ATOM
1	  C1	12.170	49.841	80.563	C.3	1	RES1	0.000	
2	  N1	11.206	53.095	87.670	N.pl3	1	RES1	0.000	
3	  O1	12.323	51.861	89.263	O.2	1	RES1	0.000	
4	  S1	15.507	51.408	82.138	S.2	1	RES1	0.000	
5	  C2	13.486	50.410	80.961	C.2	1	RES1	0.000	
6	  N2	12.782	54.094	90.878	N.pl3	1	RES1	0.000	
7	  O2	14.115	56.723	90.128	O.3	1	RES1	0.000	
8	  C3	13.847	50.998	82.165	C.2	1	RES1	0.000	
9	  N3	11.077	54.502	94.011	N.pl3	1	RES1	0.000	
10	  O3	10.617	53.634	91.408	O.2	1	RES1	0.000	
11	  C4	13.017	51.257	83.366	C.2	1	RES1	0.000	
12	  O4	12.450	56.247	94.676	O.2	1	RES1	0.000	
13	  C5	12.155	50.287	83.861	C.2	1	RES1	0.000	
14	  C6	11.392	50.523	85.018	C.2	1	RES1	0.000	
15	  C7	11.460	51.724	85.685	C.2	1	RES1	0.000	
16	  N7	14.521	50.330	80.043	N.2	1	RES1	0.000	
17	  C8	10.673	51.964	86.911	C.3	1	RES1	0.000	
18	  C9	12.043	52.951	88.753	C.2	1	RES1	0.000	
19	 C10	12.476	54.236	89.436	C.3	1	RES1	0.000	
20	 C11	13.777	54.713	88.832	C.3	1	RES1	0.000	
21	 C12	14.541	55.373	89.958	C.3	1	RES1	0.000	
22	 C13	14.149	54.541	91.165	C.3	1	RES1	0.000	
23	 C14	11.740	53.829	91.794	C.2	1	RES1	0.000	
24	 C15	12.128	53.747	93.298	C.3	1	RES1	0.000	
25	 C16	11.367	55.729	94.629	C.2	1	RES1	0.000	
26	 C17	10.141	56.338	95.227	C.3	1	RES1	0.000	
27	 C52	12.271	52.285	93.854	C.3	1	RES1	0.000	
28	 C53	10.880	51.576	93.839	C.3	1	RES1	0.000	
29	 C54	12.792	52.320	95.304	C.3	1	RES1	0.000	
30	 C55	13.218	51.440	93.005	C.3	1	RES1	0.000	
31	 C56	12.342	52.714	85.194	C.2	1	RES1	0.000	
32	 C57	13.107	52.481	84.036	C.2	1	RES1	0.000	
33	 C58	15.598	50.838	80.561	C.2	1	RES1	0.000	
@<TRIPOS>BOND
1 1 5 1
2 2 17 1
3 2 18 1
4 3 18 2
5 4 8 ar
6 4 33 ar
7 5 8 ar
8 5 16 ar
9 8 11 1
10 11 13 ar
11 11 32 ar
12 13 14 ar
13 14 15 ar
14 15 17 1
15 6 19 1
16 18 19 1
17 19 20 1
18 20 21 1
19 7 21 1
20 21 22 1
21 6 22 1
22 6 23 1
23 10 23 2
24 23 24 1
25 9 24 1
26 24 27 1
27 9 25 1
28 12 25 2
29 25 26 1
30 27 28 1
31 27 29 1
32 27 30 1
33 15 31 ar
34 31 32 ar
35 16 33 ar
@<TRIPOS>SUBSTRUCTURE
1	RES1	1	GROUP	1 ****	RES
