# created with PyMOL 2.5.2
@<TRIPOS>MOLECULE
WDR5_4W9H_E3ligase
33 35 1                 
SMALL
USER_CHARGES
@<TRIPOS>ATOM
1	  C1	12.188	49.849	80.510	C.3	1	RES1	0.000	
2	  N1	11.233	53.112	87.674	N.pl3	1	RES1	0.000	
3	  O1	12.356	51.827	89.219	O.2	1	RES1	0.000	
4	  S1	15.479	51.385	82.155	S.2	1	RES1	0.000	
5	  C2	13.494	50.390	80.930	C.2	1	RES1	0.000	
6	  N2	12.791	54.095	90.890	N.pl3	1	RES1	0.000	
7	  O2	14.095	56.741	90.108	O.3	1	RES1	0.000	
8	  C3	13.822	50.980	82.159	C.2	1	RES1	0.000	
9	  N3	11.088	54.498	94.012	N.pl3	1	RES1	0.000	
10	  O3	10.634	53.636	91.431	O.2	1	RES1	0.000	
11	  C4	12.992	51.270	83.346	C.2	1	RES1	0.000	
12	  O4	12.436	56.278	94.666	O.2	1	RES1	0.000	
13	  C5	13.070	52.506	84.014	C.2	1	RES1	0.000	
14	  C6	12.320	52.745	85.144	C.2	1	RES1	0.000	
15	  C7	11.465	51.754	85.645	C.2	1	RES1	0.000	
16	  N7	14.534	50.305	80.045	N.2	1	RES1	0.000	
17	  C8	10.681	52.005	86.914	C.3	1	RES1	0.000	
18	  C9	12.069	52.924	88.766	C.2	1	RES1	0.000	
19	 C10	12.499	54.232	89.464	C.3	1	RES1	0.000	
20	 C11	13.789	54.719	88.824	C.3	1	RES1	0.000	
21	 C12	14.539	55.391	89.955	C.3	1	RES1	0.000	
22	 C13	14.165	54.577	91.187	C.3	1	RES1	0.000	
23	 C14	11.766	53.832	91.813	C.2	1	RES1	0.000	
24	 C15	12.126	53.734	93.332	C.3	1	RES1	0.000	
25	 C16	11.337	55.716	94.655	C.2	1	RES1	0.000	
26	 C17	10.109	56.325	95.247	C.3	1	RES1	0.000	
27	 C54	12.265	52.279	93.857	C.3	1	RES1	0.000	
28	 C55	10.875	51.612	93.825	C.3	1	RES1	0.000	
29	 C56	12.758	52.280	95.329	C.3	1	RES1	0.000	
30	 C57	13.239	51.399	93.034	C.3	1	RES1	0.000	
31	 C58	11.391	50.538	85.031	C.2	1	RES1	0.000	
32	 C59	12.142	50.281	83.881	C.2	1	RES1	0.000	
33	 C60	15.626	50.794	80.571	C.2	1	RES1	0.000	
@<TRIPOS>BOND
1 1 5 1
2 2 17 1
3 2 18 1
4 3 18 2
5 4 8 ar
6 4 33 ar
7 5 8 ar
8 5 16 ar
9 8 11 1
10 11 13 ar
11 11 32 ar
12 13 14 ar
13 14 15 ar
14 15 17 1
15 6 19 1
16 18 19 1
17 19 20 1
18 20 21 1
19 7 21 1
20 21 22 1
21 6 22 1
22 6 23 1
23 10 23 2
24 23 24 1
25 9 24 1
26 24 27 1
27 9 25 1
28 12 25 2
29 25 26 1
30 27 28 1
31 27 29 1
32 27 30 1
33 15 31 ar
34 31 32 ar
35 16 33 ar
@<TRIPOS>SUBSTRUCTURE
1	RES1	1	GROUP	1 ****	RES
