# created with PyMOL 2.5.2
@<TRIPOS>MOLECULE
BRD4_5NVV_E3ligase
34 36 1                 
SMALL
USER_CHARGES
@<TRIPOS>ATOM
1	  C1	12.705	49.971	80.763	C.3	1	RES1	0.000	
2	  N1	11.501	53.139	87.893	N.pl3	1	RES1	0.000	
3	  O1	12.768	51.873	89.343	O.2	1	RES1	0.000	
4	  C2	13.995	50.543	81.195	C.2	1	RES1	0.000	
5	  N2	13.079	54.114	91.027	N.pl3	1	RES1	0.000	
6	  O2	14.385	56.769	90.466	O.3	1	RES1	0.000	
7	  S2	15.935	51.731	82.335	S.2	1	RES1	0.000	
8	  C3	14.292	51.176	82.413	C.2	1	RES1	0.000	
9	  N3	11.395	54.466	94.190	N.pl3	1	RES1	0.000	
10	  O3	10.925	53.653	91.595	O.2	1	RES1	0.000	
11	  C4	13.505	51.378	83.595	C.2	1	RES1	0.000	
12	  O4	12.619	56.376	94.743	O.2	1	RES1	0.000	
13	  C5	13.474	52.619	84.271	C.2	1	RES1	0.000	
14	  O5	10.518	57.479	96.136	O.3	1	RES1	0.000	
15	  C6	12.705	52.817	85.388	C.2	1	RES1	0.000	
16	  C7	11.840	51.793	85.866	C.2	1	RES1	0.000	
17	  C8	11.022	52.013	87.111	C.3	1	RES1	0.000	
18	  C9	12.392	52.970	88.945	C.2	1	RES1	0.000	
19	  N9	15.041	50.508	80.268	N.2	1	RES1	0.000	
20	 C10	12.796	54.298	89.621	C.3	1	RES1	0.000	
21	 C11	14.074	54.866	89.011	C.3	1	RES1	0.000	
22	 C12	14.824	55.430	90.190	C.3	1	RES1	0.000	
23	 C13	14.457	54.522	91.340	C.3	1	RES1	0.000	
24	 C14	12.084	53.865	91.968	C.2	1	RES1	0.000	
25	 C15	12.470	53.782	93.460	C.3	1	RES1	0.000	
26	 C16	11.577	55.721	94.769	C.2	1	RES1	0.000	
27	 C17	10.324	56.207	95.478	C.3	1	RES1	0.000	
28	 C44	12.700	52.336	93.970	C.3	1	RES1	0.000	
29	 C45	11.398	51.448	93.906	C.3	1	RES1	0.000	
30	 C46	13.205	52.335	95.411	C.3	1	RES1	0.000	
31	 C47	13.782	51.611	93.112	C.3	1	RES1	0.000	
32	 C48	11.840	50.576	85.197	C.2	1	RES1	0.000	
33	 C49	12.641	50.378	84.089	C.2	1	RES1	0.000	
34	 C50	16.086	51.104	80.759	C.2	1	RES1	0.000	
@<TRIPOS>BOND
1 1 4 1
2 2 17 1
3 2 18 1
4 3 18 2
5 4 8 ar
6 4 19 ar
7 7 8 ar
8 7 34 ar
9 8 11 1
10 11 13 ar
11 11 33 ar
12 13 15 ar
13 15 16 ar
14 16 17 1
15 5 20 1
16 18 20 1
17 20 21 1
18 21 22 1
19 6 22 1
20 22 23 1
21 5 23 1
22 5 24 1
23 10 24 2
24 24 25 1
25 9 25 1
26 25 28 1
27 9 26 1
28 12 26 2
29 26 27 1
30 14 27 1
31 28 29 1
32 28 30 1
33 28 31 1
34 16 32 ar
35 32 33 ar
36 19 34 ar
@<TRIPOS>SUBSTRUCTURE
1	RES1	1	GROUP	1 ****	RES
