# created with PyMOL 2.5.2
@<TRIPOS>MOLECULE
BRD4_5NVV_E3ligase
34 36 1                 
SMALL
USER_CHARGES
@<TRIPOS>ATOM
1	  C1	12.807	49.932	80.686	C.3	1	RES1	0.000	
2	  N1	11.504	53.125	87.815	N.pl3	1	RES1	0.000	
3	  O1	12.625	51.854	89.340	O.2	1	RES1	0.000	
4	  C2	14.098	50.572	81.104	C.2	1	RES1	0.000	
5	  N2	12.964	54.100	91.053	N.pl3	1	RES1	0.000	
6	  O2	14.356	56.686	90.447	O.3	1	RES1	0.000	
7	  S2	16.003	51.712	82.343	S.2	1	RES1	0.000	
8	  C3	14.347	51.195	82.322	C.2	1	RES1	0.000	
9	  N3	11.375	54.487	94.275	N.pl3	1	RES1	0.000	
10	  O3	10.840	53.621	91.745	O.2	1	RES1	0.000	
11	  C4	13.500	51.434	83.493	C.2	1	RES1	0.000	
12	  O4	12.536	56.419	94.775	O.2	1	RES1	0.000	
13	  C5	13.509	52.640	84.164	C.2	1	RES1	0.000	
14	  O5	10.451	57.509	96.181	O.3	1	RES1	0.000	
15	  C6	12.704	52.824	85.318	C.2	1	RES1	0.000	
16	  C7	11.849	51.809	85.765	C.2	1	RES1	0.000	
17	  C8	11.018	52.007	87.016	C.3	1	RES1	0.000	
18	  C9	12.340	52.936	88.879	C.2	1	RES1	0.000	
19	  N9	15.137	50.516	80.219	N.2	1	RES1	0.000	
20	 C10	12.741	54.259	89.615	C.3	1	RES1	0.000	
21	 C11	14.096	54.740	89.058	C.3	1	RES1	0.000	
22	 C12	14.805	55.323	90.231	C.3	1	RES1	0.000	
23	 C13	14.335	54.444	91.401	C.3	1	RES1	0.000	
24	 C14	12.014	53.844	92.049	C.2	1	RES1	0.000	
25	 C15	12.462	53.816	93.506	C.3	1	RES1	0.000	
26	 C16	11.513	55.755	94.810	C.2	1	RES1	0.000	
27	 C17	10.295	56.204	95.563	C.3	1	RES1	0.000	
28	 C42	12.773	52.388	94.070	C.3	1	RES1	0.000	
29	 C43	11.535	51.447	93.966	C.3	1	RES1	0.000	
30	 C44	13.207	52.473	95.523	C.3	1	RES1	0.000	
31	 C45	13.887	51.715	93.261	C.3	1	RES1	0.000	
32	 C46	11.864	50.584	85.094	C.2	1	RES1	0.000	
33	 C47	12.645	50.403	83.970	C.2	1	RES1	0.000	
34	 C48	16.216	51.084	80.757	C.2	1	RES1	0.000	
@<TRIPOS>BOND
1 1 4 1
2 2 17 1
3 2 18 1
4 3 18 2
5 4 8 ar
6 4 19 ar
7 7 8 ar
8 7 34 ar
9 8 11 1
10 11 13 ar
11 11 33 ar
12 13 15 ar
13 15 16 ar
14 16 17 1
15 5 20 1
16 18 20 1
17 20 21 1
18 21 22 1
19 6 22 1
20 22 23 1
21 5 23 1
22 5 24 1
23 10 24 2
24 24 25 1
25 9 25 1
26 25 28 1
27 9 26 1
28 12 26 2
29 26 27 1
30 14 27 1
31 28 29 1
32 28 30 1
33 28 31 1
34 16 32 ar
35 32 33 ar
36 19 34 ar
@<TRIPOS>SUBSTRUCTURE
1	RES1	1	GROUP	1 ****	RES
