# created with PyMOL 2.5.2
@<TRIPOS>MOLECULE
BRD4_5NVV_E3ligase
34 36 1                 
SMALL
USER_CHARGES
@<TRIPOS>ATOM
1	  C1	12.616	49.877	80.799	C.3	1	RES1	0.000	
2	  N1	11.577	53.255	87.851	N.pl3	1	RES1	0.000	
3	  O1	12.665	51.987	89.423	O.2	1	RES1	0.000	
4	  C2	13.884	50.508	81.161	C.2	1	RES1	0.000	
5	  N2	13.165	54.172	91.073	N.pl3	1	RES1	0.000	
6	  O2	14.414	56.893	90.330	O.3	1	RES1	0.000	
7	  S2	15.921	51.582	82.251	S.2	1	RES1	0.000	
8	  C3	14.265	51.079	82.359	C.2	1	RES1	0.000	
9	  N3	11.428	54.424	94.202	N.pl3	1	RES1	0.000	
10	  O3	10.993	53.647	91.624	O.2	1	RES1	0.000	
11	  C4	13.501	51.320	83.594	C.2	1	RES1	0.000	
12	  O4	12.573	56.325	94.818	O.2	1	RES1	0.000	
13	  C5	13.592	52.526	84.278	C.2	1	RES1	0.000	
14	  O5	10.439	57.375	96.153	O.3	1	RES1	0.000	
15	  C6	12.811	52.788	85.429	C.2	1	RES1	0.000	
16	  C7	11.915	51.862	85.881	C.2	1	RES1	0.000	
17	  C8	11.044	52.167	87.062	C.3	1	RES1	0.000	
18	  N8	14.865	50.473	80.191	N.2	1	RES1	0.000	
19	  C9	12.400	53.071	88.929	C.2	1	RES1	0.000	
20	 C10	12.853	54.359	89.629	C.3	1	RES1	0.000	
21	 C11	14.140	54.852	89.031	C.3	1	RES1	0.000	
22	 C12	14.877	55.538	90.159	C.3	1	RES1	0.000	
23	 C13	14.486	54.703	91.372	C.3	1	RES1	0.000	
24	 C14	12.164	53.865	92.012	C.2	1	RES1	0.000	
25	 C15	12.504	53.748	93.486	C.3	1	RES1	0.000	
26	 C16	11.562	55.654	94.813	C.2	1	RES1	0.000	
27	 C17	10.277	56.141	95.477	C.3	1	RES1	0.000	
28	 C43	12.736	52.277	93.998	C.3	1	RES1	0.000	
29	 C44	11.419	51.497	94.005	C.3	1	RES1	0.000	
30	 C45	13.272	52.294	95.444	C.3	1	RES1	0.000	
31	 C46	13.728	51.517	93.112	C.3	1	RES1	0.000	
32	 C47	11.770	50.663	85.189	C.2	1	RES1	0.000	
33	 C48	12.516	50.400	84.050	C.2	1	RES1	0.000	
34	 C49	15.984	51.033	80.653	C.2	1	RES1	0.000	
@<TRIPOS>BOND
1 1 4 1
2 2 17 1
3 2 19 1
4 3 19 2
5 4 8 ar
6 4 18 ar
7 7 8 ar
8 7 34 ar
9 8 11 1
10 11 13 ar
11 11 33 ar
12 13 15 ar
13 15 16 ar
14 16 17 1
15 5 20 1
16 19 20 1
17 20 21 1
18 21 22 1
19 6 22 1
20 22 23 1
21 5 23 1
22 5 24 1
23 10 24 2
24 24 25 1
25 9 25 1
26 25 28 1
27 9 26 1
28 12 26 2
29 26 27 1
30 14 27 1
31 28 29 1
32 28 30 1
33 28 31 1
34 16 32 ar
35 32 33 ar
36 18 34 ar
@<TRIPOS>SUBSTRUCTURE
1	RES1	1	GROUP	1 ****	RES
