# created with PyMOL 2.5.2
@<TRIPOS>MOLECULE
BRD4_7BQU_E3ligase
19 21 1                 
SMALL
USER_CHARGES
@<TRIPOS>ATOM
1	  N4	25.417	17.719	13.138	N.2	1	RES1	0.000	
2	  N5	25.066	19.888	16.069	N.pl3	1	RES1	0.000	
3	  O6	27.410	17.230	11.936	O.2	1	RES1	0.000	
4	  O7	26.350	20.268	17.907	O.2	1	RES1	0.000	
5	  O8	23.718	19.587	14.275	O.2	1	RES1	0.000	
6	  O9	23.116	17.702	13.664	O.2	1	RES1	0.000	
7	 C26	25.566	15.486	10.244	C.2	1	RES1	0.000	
8	 C27	24.477	14.828	9.660	C.2	1	RES1	0.000	
9	 C28	23.162	14.979	10.184	C.2	1	RES1	0.000	
10	 C29	22.930	15.800	11.301	C.2	1	RES1	0.000	
11	 C30	24.009	16.431	11.881	C.2	1	RES1	0.000	
12	 C31	25.294	16.299	11.337	C.2	1	RES1	0.000	
13	 C32	26.214	17.126	12.144	C.2	1	RES1	0.000	
14	 C33	25.953	18.631	14.138	C.3	1	RES1	0.000	
15	 C34	26.837	17.969	15.171	C.3	1	RES1	0.000	
16	 C35	27.362	19.017	16.163	C.3	1	RES1	0.000	
17	 C36	26.221	19.766	16.801	C.2	1	RES1	0.000	
18	 C37	24.805	19.375	14.838	C.2	1	RES1	0.000	
19	 C38	24.087	17.356	12.990	C.2	1	RES1	0.000	
@<TRIPOS>BOND
1 7 8 ar
2 7 12 ar
3 8 9 ar
4 9 10 ar
5 10 11 ar
6 11 12 ar
7 11 19 ar
8 12 13 ar
9 1 13 ar
10 3 13 2
11 1 14 1
12 14 15 1
13 14 18 1
14 15 16 1
15 16 17 1
16 2 17 1
17 4 17 2
18 2 18 1
19 5 18 2
20 1 19 ar
21 6 19 2
@<TRIPOS>SUBSTRUCTURE
1	RES1	1	GROUP	1 ****	RES
