# created with PyMOL 2.5.2
@<TRIPOS>MOLECULE
BRD4_5NVV_E3ligase
35 37 1                 
SMALL
USER_CHARGES
@<TRIPOS>ATOM
1	  C1	12.659	49.924	80.787	C.3	1	RES1	0.000	
2	  N1	11.499	53.179	87.912	N.pl3	1	RES1	0.000	
3	  O1	12.836	51.939	89.311	O.2	1	RES1	0.000	
4	  C2	13.948	50.549	81.195	C.2	1	RES1	0.000	
5	  N2	13.130	54.166	91.058	N.pl3	1	RES1	0.000	
6	  O2	14.448	56.785	90.373	O.3	1	RES1	0.000	
7	  S2	15.911	51.636	82.358	S.2	1	RES1	0.000	
8	  C3	14.246	51.154	82.399	C.2	1	RES1	0.000	
9	  N3	11.433	54.443	94.223	N.pl3	1	RES1	0.000	
10	  O3	10.965	53.616	91.624	O.2	1	RES1	0.000	
11	  C4	13.432	51.373	83.593	C.2	1	RES1	0.000	
12	  O4	12.617	56.369	94.722	O.2	1	RES1	0.000	
13	  C5	13.486	52.606	84.269	C.2	1	RES1	0.000	
14	  O5	10.538	57.464	96.109	O.3	1	RES1	0.000	
15	  C6	12.700	52.848	85.390	C.2	1	RES1	0.000	
16	  C7	11.835	51.864	85.906	C.2	1	RES1	0.000	
17	  C8	10.999	52.083	87.134	C.3	1	RES1	0.000	
18	  N8	14.968	50.494	80.269	N.2	1	RES1	0.000	
19	  C9	9.512	52.265	86.814	C.3	1	RES1	0.000	
20	 C10	12.386	53.018	88.954	C.2	1	RES1	0.000	
21	 C11	12.773	54.324	89.643	C.3	1	RES1	0.000	
22	 C12	14.071	54.857	88.991	C.3	1	RES1	0.000	
23	 C13	14.859	55.435	90.130	C.3	1	RES1	0.000	
24	 C14	14.490	54.569	91.325	C.3	1	RES1	0.000	
25	 C15	12.104	53.858	91.982	C.2	1	RES1	0.000	
26	 C16	12.535	53.767	93.485	C.3	1	RES1	0.000	
27	 C17	11.599	55.694	94.787	C.2	1	RES1	0.000	
28	 C18	10.330	56.182	95.470	C.3	1	RES1	0.000	
29	 C43	12.761	52.294	93.960	C.3	1	RES1	0.000	
30	 C44	11.385	51.568	94.012	C.3	1	RES1	0.000	
31	 C45	13.333	52.297	95.357	C.3	1	RES1	0.000	
32	 C46	13.682	51.462	93.049	C.3	1	RES1	0.000	
33	 C47	11.803	50.618	85.219	C.2	1	RES1	0.000	
34	 C48	12.553	50.378	84.077	C.2	1	RES1	0.000	
35	 C49	16.039	51.061	80.764	C.2	1	RES1	0.000	
@<TRIPOS>BOND
1 1 4 1
2 2 17 1
3 2 20 1
4 3 20 2
5 4 8 ar
6 4 18 ar
7 7 8 ar
8 7 35 ar
9 8 11 1
10 11 13 ar
11 11 34 ar
12 13 15 ar
13 15 16 ar
14 16 17 1
15 17 19 1
16 20 21 1
17 5 21 1
18 21 22 1
19 22 23 1
20 6 23 1
21 23 24 1
22 5 24 1
23 5 25 1
24 10 25 2
25 25 26 1
26 9 26 1
27 26 29 1
28 9 27 1
29 12 27 2
30 27 28 1
31 14 28 1
32 29 30 1
33 29 31 1
34 29 32 1
35 16 33 ar
36 33 34 ar
37 18 35 ar
@<TRIPOS>SUBSTRUCTURE
1	RES1	1	GROUP	1 ****	RES
