# created with PyMOL 2.5.2
@<TRIPOS>MOLECULE
BRD4_5NVV_E3ligase
34 36 1                 
SMALL
USER_CHARGES
@<TRIPOS>ATOM
1	  C1	12.836	49.927	80.683	C.3	1	RES1	0.000	
2	  N1	11.344	53.024	87.869	N.pl3	1	RES1	0.000	
3	  O1	12.723	51.851	89.294	O.2	1	RES1	0.000	
4	  C2	14.075	50.630	81.148	C.2	1	RES1	0.000	
5	  N2	12.893	54.100	91.008	N.pl3	1	RES1	0.000	
6	  O2	14.510	56.559	90.434	O.3	1	RES1	0.000	
7	  S2	15.929	51.813	82.426	S.2	1	RES1	0.000	
8	  C3	14.301	51.228	82.411	C.2	1	RES1	0.000	
9	  N3	11.502	54.550	94.300	N.pl3	1	RES1	0.000	
10	  O3	10.798	53.707	91.806	O.2	1	RES1	0.000	
11	  C4	13.429	51.397	83.539	C.2	1	RES1	0.000	
12	  O4	12.759	56.443	94.694	O.2	1	RES1	0.000	
13	  C5	12.605	50.365	83.982	C.2	1	RES1	0.000	
14	  O5	10.763	57.633	96.154	O.3	1	RES1	0.000	
15	  C6	11.794	50.513	85.105	C.2	1	RES1	0.000	
16	  C7	11.791	51.722	85.841	C.2	1	RES1	0.000	
17	  C8	10.936	51.880	87.065	C.3	1	RES1	0.000	
18	  N8	15.139	50.654	80.276	N.2	1	RES1	0.000	
19	  C9	12.236	52.906	88.920	C.2	1	RES1	0.000	
20	 C10	12.594	54.240	89.558	C.3	1	RES1	0.000	
21	 C11	13.896	54.768	88.933	C.3	1	RES1	0.000	
22	 C12	14.763	55.185	90.118	C.3	1	RES1	0.000	
23	 C13	14.300	54.279	91.270	C.3	1	RES1	0.000	
24	 C14	11.982	53.876	92.054	C.2	1	RES1	0.000	
25	 C15	12.515	53.840	93.505	C.3	1	RES1	0.000	
26	 C16	11.736	55.821	94.792	C.2	1	RES1	0.000	
27	 C17	10.542	56.364	95.591	C.3	1	RES1	0.000	
28	 C44	12.774	52.401	94.002	C.3	1	RES1	0.000	
29	 C45	11.478	51.582	94.228	C.3	1	RES1	0.000	
30	 C46	13.566	52.411	95.337	C.3	1	RES1	0.000	
31	 C47	13.647	51.597	92.973	C.3	1	RES1	0.000	
32	 C48	12.614	52.743	85.419	C.2	1	RES1	0.000	
33	 C49	13.434	52.608	84.278	C.2	1	RES1	0.000	
34	 C50	16.152	51.256	80.828	C.2	1	RES1	0.000	
@<TRIPOS>BOND
1 1 4 1
2 2 17 1
3 2 19 1
4 3 19 2
5 4 8 ar
6 4 18 ar
7 7 8 ar
8 7 34 ar
9 8 11 1
10 11 13 ar
11 11 33 ar
12 13 15 ar
13 15 16 ar
14 16 17 1
15 5 20 1
16 19 20 1
17 20 21 1
18 21 22 1
19 6 22 1
20 22 23 1
21 5 23 1
22 5 24 1
23 10 24 2
24 24 25 1
25 9 25 1
26 25 28 1
27 9 26 1
28 12 26 2
29 26 27 1
30 14 27 1
31 28 29 1
32 28 30 1
33 28 31 1
34 16 32 ar
35 32 33 ar
36 18 34 ar
@<TRIPOS>SUBSTRUCTURE
1	RES1	1	GROUP	1 ****	RES
