# created with PyMOL 2.5.2
@<TRIPOS>MOLECULE
BRD4_5NVV_E3ligase
34 36 1                 
SMALL
USER_CHARGES
@<TRIPOS>ATOM
1	  C1	13.015	49.920	80.697	C.3	1	RES1	0.000	
2	  N1	11.276	52.861	87.854	N.pl3	1	RES1	0.000	
3	  O1	12.842	51.873	89.216	O.2	1	RES1	0.000	
4	  C2	14.197	50.728	81.111	C.2	1	RES1	0.000	
5	  N2	12.649	54.101	91.048	N.pl3	1	RES1	0.000	
6	  O2	15.710	55.544	89.902	O.3	1	RES1	0.000	
7	  S2	15.957	52.118	82.323	S.2	1	RES1	0.000	
8	  C3	14.411	51.330	82.340	C.2	1	RES1	0.000	
9	  N3	11.408	54.597	94.369	N.pl3	1	RES1	0.000	
10	  O3	10.574	53.747	91.967	O.2	1	RES1	0.000	
11	  C4	13.544	51.408	83.530	C.2	1	RES1	0.000	
12	  O4	12.535	56.595	94.636	O.2	1	RES1	0.000	
13	  C5	12.851	50.291	84.022	C.2	1	RES1	0.000	
14	  O5	10.585	57.679	96.215	O.3	1	RES1	0.000	
15	  C6	12.086	50.385	85.141	C.2	1	RES1	0.000	
16	  C7	11.921	51.568	85.853	C.2	1	RES1	0.000	
17	  C8	11.039	51.646	87.086	C.3	1	RES1	0.000	
18	  N8	15.194	50.909	80.190	N.2	1	RES1	0.000	
19	  C9	12.195	52.851	88.892	C.2	1	RES1	0.000	
20	 C10	12.323	54.188	89.634	C.3	1	RES1	0.000	
21	 C11	13.492	54.979	89.040	C.3	1	RES1	0.000	
22	 C12	14.662	54.554	89.900	C.3	1	RES1	0.000	
23	 C13	14.053	54.427	91.279	C.3	1	RES1	0.000	
24	 C14	11.786	53.887	92.140	C.2	1	RES1	0.000	
25	 C15	12.407	53.905	93.562	C.3	1	RES1	0.000	
26	 C16	11.555	55.894	94.858	C.2	1	RES1	0.000	
27	 C17	10.391	56.376	95.678	C.3	1	RES1	0.000	
28	 C42	12.761	52.498	94.096	C.3	1	RES1	0.000	
29	 C43	11.542	51.595	94.273	C.3	1	RES1	0.000	
30	 C44	13.445	52.652	95.475	C.3	1	RES1	0.000	
31	 C45	13.770	51.781	93.176	C.3	1	RES1	0.000	
32	 C46	12.606	52.715	85.365	C.2	1	RES1	0.000	
33	 C47	13.393	52.644	84.227	C.2	1	RES1	0.000	
34	 C48	16.175	51.613	80.719	C.2	1	RES1	0.000	
@<TRIPOS>BOND
1 1 4 1
2 2 17 1
3 2 19 1
4 3 19 2
5 4 8 ar
6 4 18 ar
7 7 8 ar
8 7 34 ar
9 8 11 1
10 11 13 ar
11 11 33 ar
12 13 15 ar
13 15 16 ar
14 16 17 1
15 5 20 1
16 19 20 1
17 20 21 1
18 21 22 1
19 6 22 1
20 22 23 1
21 5 23 1
22 5 24 1
23 10 24 2
24 24 25 1
25 9 25 1
26 25 28 1
27 9 26 1
28 12 26 2
29 26 27 1
30 14 27 1
31 28 29 1
32 28 30 1
33 28 31 1
34 16 32 ar
35 32 33 ar
36 18 34 ar
@<TRIPOS>SUBSTRUCTURE
1	RES1	1	GROUP	1 ****	RES
