# created with PyMOL 2.5.2
@<TRIPOS>MOLECULE
EGFR_4W9H_E3ligase
33 35 1                 
SMALL
USER_CHARGES
@<TRIPOS>ATOM
1	  C1	12.440	49.964	80.474	C.3	1	RES1	0.000	
2	  N1	10.983	52.791	87.648	N.pl3	1	RES1	0.000	
3	  O1	12.418	51.801	89.157	O.2	1	RES1	0.000	
4	  S1	15.584	51.846	82.082	S.2	1	RES1	0.000	
5	  C2	13.700	50.600	80.908	C.2	1	RES1	0.000	
6	  N2	12.297	54.116	90.848	N.pl3	1	RES1	0.000	
7	  O2	15.427	55.410	89.724	O.3	1	RES1	0.000	
8	  C3	13.980	51.165	82.131	C.2	1	RES1	0.000	
9	  N3	11.037	54.685	94.171	N.pl3	1	RES1	0.000	
10	  O3	10.215	53.789	91.751	O.2	1	RES1	0.000	
11	  C4	13.186	51.272	83.384	C.2	1	RES1	0.000	
12	  O4	12.336	56.534	94.615	O.2	1	RES1	0.000	
13	  C5	13.047	52.478	84.075	C.2	1	RES1	0.000	
14	  C6	12.260	52.562	85.188	C.2	1	RES1	0.000	
15	  C7	11.563	51.471	85.677	C.2	1	RES1	0.000	
16	  C8	10.707	51.557	86.917	C.3	1	RES1	0.000	
17	  C9	11.849	52.803	88.734	C.2	1	RES1	0.000	
18	 C10	12.015	54.158	89.424	C.3	1	RES1	0.000	
19	 C11	13.230	54.895	88.835	C.3	1	RES1	0.000	
20	 C12	14.359	54.452	89.729	C.3	1	RES1	0.000	
21	 N12	14.729	50.669	79.974	N.2	1	RES1	0.000	
22	 C13	13.693	54.402	91.108	C.3	1	RES1	0.000	
23	 C14	11.420	53.937	91.910	C.2	1	RES1	0.000	
24	 C15	12.021	53.961	93.338	C.3	1	RES1	0.000	
25	 C16	11.280	55.933	94.734	C.2	1	RES1	0.000	
26	 C17	10.125	56.444	95.507	C.3	1	RES1	0.000	
27	 C47	12.312	52.509	93.905	C.3	1	RES1	0.000	
28	 C48	12.896	52.522	95.305	C.3	1	RES1	0.000	
29	 C49	13.352	51.824	92.989	C.3	1	RES1	0.000	
30	 C50	11.057	51.650	93.905	C.3	1	RES1	0.000	
31	 C51	11.666	50.267	84.971	C.2	1	RES1	0.000	
32	 C52	12.459	50.166	83.824	C.2	1	RES1	0.000	
33	 C53	15.735	51.301	80.483	C.2	1	RES1	0.000	
@<TRIPOS>BOND
1 1 5 1
2 2 16 1
3 2 17 1
4 3 17 2
5 4 8 ar
6 4 33 ar
7 5 8 ar
8 8 11 1
9 11 13 ar
10 11 32 ar
11 13 14 ar
12 14 15 ar
13 15 16 1
14 6 18 1
15 17 18 1
16 18 19 1
17 19 20 1
18 7 20 1
19 20 22 1
20 5 21 ar
21 21 33 ar
22 6 22 1
23 6 23 1
24 10 23 2
25 23 24 1
26 9 24 1
27 24 27 1
28 9 25 1
29 12 25 2
30 25 26 1
31 27 28 1
32 27 29 1
33 27 30 1
34 15 31 ar
35 31 32 ar
@<TRIPOS>SUBSTRUCTURE
1	RES1	1	GROUP	1 ****	RES
