# created with PyMOL 2.5.2
@<TRIPOS>MOLECULE
EGFR_4W9H_E3ligase
33 35 1                 
SMALL
USER_CHARGES
@<TRIPOS>ATOM
1	  C1	12.327	49.955	80.586	C.3	1	RES1	0.000	
2	  N1	10.969	52.790	87.735	N.pl3	1	RES1	0.000	
3	  O1	12.408	51.804	89.211	O.2	1	RES1	0.000	
4	  S1	15.534	51.753	82.196	S.2	1	RES1	0.000	
5	  C2	13.600	50.623	81.004	C.2	1	RES1	0.000	
6	  N2	12.531	54.140	90.838	N.pl3	1	RES1	0.000	
7	  O2	15.475	55.569	89.428	O.3	1	RES1	0.000	
8	  C3	13.920	51.160	82.235	C.2	1	RES1	0.000	
9	  N3	11.086	54.636	94.091	N.pl3	1	RES1	0.000	
10	  O3	10.390	53.773	91.603	O.2	1	RES1	0.000	
11	  C4	13.076	51.299	83.448	C.2	1	RES1	0.000	
12	  O4	12.458	56.415	94.629	O.2	1	RES1	0.000	
13	  C5	12.327	50.205	83.872	C.2	1	RES1	0.000	
14	  C6	11.500	50.321	85.030	C.2	1	RES1	0.000	
15	  C7	11.438	51.514	85.749	C.2	1	RES1	0.000	
16	  C8	10.625	51.600	86.993	C.3	1	RES1	0.000	
17	  C9	11.865	52.818	88.787	C.2	1	RES1	0.000	
18	 C10	12.091	54.169	89.430	C.3	1	RES1	0.000	
19	 C11	13.242	54.897	88.745	C.3	1	RES1	0.000	
20	 C12	14.458	54.565	89.571	C.3	1	RES1	0.000	
21	 N12	14.618	50.695	80.060	N.2	1	RES1	0.000	
22	 C13	13.912	54.556	90.977	C.3	1	RES1	0.000	
23	 C14	11.558	53.919	91.878	C.2	1	RES1	0.000	
24	 C15	12.056	53.893	93.292	C.3	1	RES1	0.000	
25	 C16	11.364	55.845	94.664	C.2	1	RES1	0.000	
26	 C17	10.200	56.461	95.384	C.3	1	RES1	0.000	
27	 C50	12.317	52.441	93.870	C.3	1	RES1	0.000	
28	 C51	10.991	51.696	94.031	C.3	1	RES1	0.000	
29	 C52	12.949	52.542	95.270	C.3	1	RES1	0.000	
30	 C53	13.222	51.606	92.980	C.3	1	RES1	0.000	
31	 C54	12.207	52.594	85.301	C.2	1	RES1	0.000	
32	 C55	12.992	52.491	84.160	C.2	1	RES1	0.000	
33	 C56	15.665	51.262	80.588	C.2	1	RES1	0.000	
@<TRIPOS>BOND
1 1 5 1
2 2 16 1
3 2 17 1
4 3 17 2
5 4 8 ar
6 4 33 ar
7 5 8 ar
8 8 11 1
9 11 13 ar
10 11 32 ar
11 13 14 ar
12 14 15 ar
13 15 16 1
14 6 18 1
15 17 18 1
16 18 19 1
17 19 20 1
18 7 20 1
19 20 22 1
20 5 21 ar
21 21 33 ar
22 6 22 1
23 6 23 1
24 10 23 2
25 23 24 1
26 9 24 1
27 24 27 1
28 9 25 1
29 12 25 2
30 25 26 1
31 27 28 1
32 27 29 1
33 27 30 1
34 15 31 ar
35 31 32 ar
@<TRIPOS>SUBSTRUCTURE
1	RES1	1	GROUP	1 ****	RES
