# created with PyMOL 2.5.2
@<TRIPOS>MOLECULE
EGFR_4W9H_E3ligase
33 35 1                 
SMALL
USER_CHARGES
@<TRIPOS>ATOM
1	  C1	12.203	49.959	80.501	C.3	1	RES1	0.000	
2	  N1	11.261	53.016	87.723	N.pl3	1	RES1	0.000	
3	  O1	12.447	51.806	89.269	O.2	1	RES1	0.000	
4	  S1	15.556	51.445	82.070	S.2	1	RES1	0.000	
5	  C2	13.539	50.448	80.903	C.2	1	RES1	0.000	
6	  N2	12.734	54.055	90.877	N.pl3	1	RES1	0.000	
7	  O2	14.188	56.651	90.340	O.3	1	RES1	0.000	
8	  C3	13.904	51.013	82.133	C.2	1	RES1	0.000	
9	  N3	10.937	54.521	93.991	N.pl3	1	RES1	0.000	
10	  O3	10.531	53.706	91.388	O.2	1	RES1	0.000	
11	  C4	13.110	51.232	83.359	C.2	1	RES1	0.000	
12	  O4	12.195	56.307	94.732	O.2	1	RES1	0.000	
13	  C5	12.274	50.251	83.846	C.2	1	RES1	0.000	
14	  C6	11.523	50.471	85.020	C.2	1	RES1	0.000	
15	  C7	11.579	51.672	85.680	C.2	1	RES1	0.000	
16	  C8	10.768	51.891	86.949	C.3	1	RES1	0.000	
17	  C9	12.098	52.884	88.802	C.2	1	RES1	0.000	
18	 C10	12.488	54.240	89.455	C.3	1	RES1	0.000	
19	 C11	13.770	54.797	88.882	C.3	1	RES1	0.000	
20	 C12	14.558	55.281	90.036	C.3	1	RES1	0.000	
21	 N12	14.539	50.351	79.964	N.2	1	RES1	0.000	
22	 C13	14.129	54.356	91.192	C.3	1	RES1	0.000	
23	 C14	11.695	53.861	91.773	C.2	1	RES1	0.000	
24	 C15	12.019	53.799	93.299	C.3	1	RES1	0.000	
25	 C16	11.116	55.720	94.649	C.2	1	RES1	0.000	
26	 C17	9.825	56.269	95.214	C.3	1	RES1	0.000	
27	 C51	12.240	52.374	93.833	C.3	1	RES1	0.000	
28	 C52	12.430	52.429	95.356	C.3	1	RES1	0.000	
29	 C53	13.481	51.759	93.187	C.3	1	RES1	0.000	
30	 C54	11.040	51.428	93.534	C.3	1	RES1	0.000	
31	 C55	12.394	52.685	85.169	C.2	1	RES1	0.000	
32	 C56	13.173	52.470	84.027	C.2	1	RES1	0.000	
33	 C57	15.625	50.861	80.476	C.2	1	RES1	0.000	
@<TRIPOS>BOND
1 1 5 1
2 2 16 1
3 2 17 1
4 3 17 2
5 4 8 ar
6 4 33 ar
7 5 8 ar
8 8 11 1
9 11 13 ar
10 11 32 ar
11 13 14 ar
12 14 15 ar
13 15 16 1
14 6 18 1
15 17 18 1
16 18 19 1
17 19 20 1
18 7 20 1
19 20 22 1
20 5 21 ar
21 21 33 ar
22 6 22 1
23 6 23 1
24 10 23 2
25 23 24 1
26 9 24 1
27 24 27 1
28 9 25 1
29 12 25 2
30 25 26 1
31 27 28 1
32 27 29 1
33 27 30 1
34 15 31 ar
35 31 32 ar
@<TRIPOS>SUBSTRUCTURE
1	RES1	1	GROUP	1 ****	RES
