# created with PyMOL 2.5.2
@<TRIPOS>MOLECULE
EGFR_4W9H_E3ligase
33 35 1                 
SMALL
USER_CHARGES
@<TRIPOS>ATOM
1	  C1	12.161	49.916	80.560	C.3	1	RES1	0.000	
2	  N1	11.202	53.115	87.673	N.pl3	1	RES1	0.000	
3	  O1	12.245	51.843	89.264	O.2	1	RES1	0.000	
4	  S1	15.504	51.442	82.117	S.2	1	RES1	0.000	
5	  C2	13.477	50.414	80.961	C.2	1	RES1	0.000	
6	  N2	12.801	54.092	90.878	N.pl3	1	RES1	0.000	
7	  O2	14.108	56.735	90.107	O.3	1	RES1	0.000	
8	  C3	13.842	50.984	82.174	C.2	1	RES1	0.000	
9	  N3	11.081	54.506	94.011	N.pl3	1	RES1	0.000	
10	  O3	10.608	53.644	91.425	O.2	1	RES1	0.000	
11	  C4	13.046	51.233	83.368	C.2	1	RES1	0.000	
12	  O4	12.425	56.240	94.711	O.2	1	RES1	0.000	
13	  C5	13.117	52.473	84.065	C.2	1	RES1	0.000	
14	  C6	12.335	52.719	85.184	C.2	1	RES1	0.000	
15	  C7	11.469	51.742	85.651	C.2	1	RES1	0.000	
16	  C8	10.641	52.001	86.908	C.3	1	RES1	0.000	
17	  C9	12.047	52.922	88.782	C.2	1	RES1	0.000	
18	 C10	12.505	54.205	89.441	C.3	1	RES1	0.000	
19	 C11	13.803	54.700	88.819	C.3	1	RES1	0.000	
20	 C12	14.541	55.350	89.940	C.3	1	RES1	0.000	
21	 N12	14.520	50.295	80.034	N.2	1	RES1	0.000	
22	 C13	14.135	54.541	91.172	C.3	1	RES1	0.000	
23	 C14	11.771	53.820	91.802	C.2	1	RES1	0.000	
24	 C15	12.134	53.740	93.305	C.3	1	RES1	0.000	
25	 C16	11.338	55.703	94.627	C.2	1	RES1	0.000	
26	 C17	10.114	56.355	95.221	C.3	1	RES1	0.000	
27	 C52	12.271	52.302	93.857	C.3	1	RES1	0.000	
28	 C53	10.914	51.611	93.863	C.3	1	RES1	0.000	
29	 C54	12.786	52.353	95.314	C.3	1	RES1	0.000	
30	 C55	13.242	51.421	93.037	C.3	1	RES1	0.000	
31	 C56	11.412	50.507	84.986	C.2	1	RES1	0.000	
32	 C57	12.173	50.297	83.870	C.2	1	RES1	0.000	
33	 C58	15.605	50.806	80.535	C.2	1	RES1	0.000	
@<TRIPOS>BOND
1 1 5 1
2 2 16 1
3 2 17 1
4 3 17 2
5 4 8 ar
6 4 33 ar
7 5 8 ar
8 8 11 1
9 11 13 ar
10 11 32 ar
11 13 14 ar
12 14 15 ar
13 15 16 1
14 6 18 1
15 17 18 1
16 18 19 1
17 19 20 1
18 7 20 1
19 20 22 1
20 5 21 ar
21 21 33 ar
22 6 22 1
23 6 23 1
24 10 23 2
25 23 24 1
26 9 24 1
27 24 27 1
28 9 25 1
29 12 25 2
30 25 26 1
31 27 28 1
32 27 29 1
33 27 30 1
34 15 31 ar
35 31 32 ar
@<TRIPOS>SUBSTRUCTURE
1	RES1	1	GROUP	1 ****	RES
