# created with PyMOL 2.5.2
@<TRIPOS>MOLECULE
EGFR_4W9H_E3ligase
33 35 1                 
SMALL
USER_CHARGES
@<TRIPOS>ATOM
1	  C1	12.247	49.821	80.556	C.3	1	RES1	0.000	
2	  N1	11.169	53.061	87.713	N.pl3	1	RES1	0.000	
3	  O1	12.354	51.782	89.205	O.2	1	RES1	0.000	
4	  S1	15.493	51.489	82.199	S.2	1	RES1	0.000	
5	  C2	13.537	50.438	80.967	C.2	1	RES1	0.000	
6	  N2	12.752	54.075	90.860	N.pl3	1	RES1	0.000	
7	  O2	14.151	56.640	90.010	O.3	1	RES1	0.000	
8	  C3	13.821	51.013	82.180	C.2	1	RES1	0.000	
9	  N3	11.094	54.534	93.997	N.pl3	1	RES1	0.000	
10	  O3	10.576	53.675	91.442	O.2	1	RES1	0.000	
11	  C4	12.986	51.281	83.367	C.2	1	RES1	0.000	
12	  O4	12.486	56.246	94.713	O.2	1	RES1	0.000	
13	  C5	12.131	50.283	83.852	C.2	1	RES1	0.000	
14	  C6	11.338	50.532	84.989	C.2	1	RES1	0.000	
15	  C7	11.442	51.739	85.670	C.2	1	RES1	0.000	
16	  C8	10.628	51.961	86.945	C.3	1	RES1	0.000	
17	  C9	11.989	52.889	88.800	C.2	1	RES1	0.000	
18	 C10	12.476	54.201	89.456	C.3	1	RES1	0.000	
19	 C11	13.778	54.607	88.791	C.3	1	RES1	0.000	
20	 C12	14.566	55.282	89.906	C.3	1	RES1	0.000	
21	 N12	14.573	50.353	80.080	N.2	1	RES1	0.000	
22	 C13	14.141	54.490	91.149	C.3	1	RES1	0.000	
23	 C14	11.749	53.842	91.803	C.2	1	RES1	0.000	
24	 C15	12.106	53.751	93.278	C.3	1	RES1	0.000	
25	 C16	11.349	55.732	94.639	C.2	1	RES1	0.000	
26	 C17	10.131	56.382	95.228	C.3	1	RES1	0.000	
27	 C53	12.268	52.337	93.829	C.3	1	RES1	0.000	
28	 C54	10.925	51.597	93.845	C.3	1	RES1	0.000	
29	 C55	12.819	52.383	95.282	C.3	1	RES1	0.000	
30	 C56	13.263	51.480	92.997	C.3	1	RES1	0.000	
31	 C57	12.306	52.719	85.199	C.2	1	RES1	0.000	
32	 C58	13.077	52.488	84.069	C.2	1	RES1	0.000	
33	 C59	15.649	50.911	80.614	C.2	1	RES1	0.000	
@<TRIPOS>BOND
1 1 5 1
2 2 16 1
3 2 17 1
4 3 17 2
5 4 8 ar
6 4 33 ar
7 5 8 ar
8 8 11 1
9 11 13 ar
10 11 32 ar
11 13 14 ar
12 14 15 ar
13 15 16 1
14 6 18 1
15 17 18 1
16 18 19 1
17 19 20 1
18 7 20 1
19 20 22 1
20 5 21 ar
21 21 33 ar
22 6 22 1
23 6 23 1
24 10 23 2
25 23 24 1
26 9 24 1
27 24 27 1
28 9 25 1
29 12 25 2
30 25 26 1
31 27 28 1
32 27 29 1
33 27 30 1
34 15 31 ar
35 31 32 ar
@<TRIPOS>SUBSTRUCTURE
1	RES1	1	GROUP	1 ****	RES
