# created with PyMOL 2.5.2
@<TRIPOS>MOLECULE
EGFR_5NVV_E3ligase
34 36 1                 
SMALL
USER_CHARGES
@<TRIPOS>ATOM
1	  C1	12.859	49.973	80.736	C.3	1	RES1	0.000	
2	  N1	11.376	52.845	87.969	N.pl3	1	RES1	0.000	
3	  O1	13.022	51.959	89.297	O.2	1	RES1	0.000	
4	  S1	15.875	52.041	82.341	S.2	1	RES1	0.000	
5	  C2	14.057	50.740	81.158	C.2	1	RES1	0.000	
6	  N2	12.829	54.172	91.046	N.pl3	1	RES1	0.000	
7	  O2	15.802	55.748	89.749	O.3	1	RES1	0.000	
8	  C3	14.304	51.322	82.383	C.2	1	RES1	0.000	
9	  N3	11.358	54.569	94.295	N.pl3	1	RES1	0.000	
10	  O3	10.713	53.748	91.777	O.2	1	RES1	0.000	
11	  C4	13.478	51.398	83.597	C.2	1	RES1	0.000	
12	  O4	12.550	56.501	94.692	O.2	1	RES1	0.000	
13	  C5	12.810	50.290	84.062	C.2	1	RES1	0.000	
14	  O5	10.552	57.605	96.228	O.3	1	RES1	0.000	
15	  C6	12.061	50.361	85.261	C.2	1	RES1	0.000	
16	  C7	11.920	51.530	85.972	C.2	1	RES1	0.000	
17	  C8	11.105	51.626	87.208	C.3	1	RES1	0.000	
18	  C9	12.340	52.891	88.993	C.2	1	RES1	0.000	
19	 C10	12.431	54.279	89.624	C.3	1	RES1	0.000	
20	 C11	13.567	55.114	88.990	C.3	1	RES1	0.000	
21	 C12	14.789	54.724	89.817	C.3	1	RES1	0.000	
22	 N12	15.086	50.886	80.214	N.2	1	RES1	0.000	
23	 C13	14.219	54.537	91.215	C.3	1	RES1	0.000	
24	 C14	11.883	53.928	92.044	C.2	1	RES1	0.000	
25	 C15	12.380	53.890	93.495	C.3	1	RES1	0.000	
26	 C16	11.543	55.840	94.839	C.2	1	RES1	0.000	
27	 C17	10.324	56.312	95.621	C.3	1	RES1	0.000	
28	 C48	12.668	52.439	94.014	C.3	1	RES1	0.000	
29	 C49	11.394	51.569	94.037	C.3	1	RES1	0.000	
30	 C50	13.252	52.472	95.437	C.3	1	RES1	0.000	
31	 C51	13.716	51.739	93.119	C.3	1	RES1	0.000	
32	 C52	12.631	52.655	85.504	C.2	1	RES1	0.000	
33	 C53	13.397	52.596	84.334	C.2	1	RES1	0.000	
34	 C54	16.056	51.555	80.741	C.2	1	RES1	0.000	
@<TRIPOS>BOND
1 1 5 1
2 2 17 1
3 2 18 1
4 3 18 2
5 4 8 ar
6 4 34 ar
7 5 8 ar
8 8 11 1
9 11 13 ar
10 11 33 ar
11 13 15 ar
12 15 16 ar
13 16 17 1
14 6 19 1
15 18 19 1
16 19 20 1
17 20 21 1
18 7 21 1
19 21 23 1
20 5 22 ar
21 22 34 ar
22 6 23 1
23 6 24 1
24 10 24 2
25 24 25 1
26 9 25 1
27 25 28 1
28 9 26 1
29 12 26 2
30 26 27 1
31 14 27 1
32 28 29 1
33 28 30 1
34 28 31 1
35 16 32 ar
36 32 33 ar
@<TRIPOS>SUBSTRUCTURE
1	RES1	1	GROUP	1 ****	RES
