# created with PyMOL 2.5.2
@<TRIPOS>MOLECULE
EGFR_5NVV_E3ligase
34 36 1                 
SMALL
USER_CHARGES
@<TRIPOS>ATOM
1	  C1	12.870	50.091	80.813	C.3	1	RES1	0.000	
2	  N1	11.256	52.757	87.966	N.pl3	1	RES1	0.000	
3	  O1	12.886	51.833	89.336	O.2	1	RES1	0.000	
4	  S1	15.862	52.200	82.443	S.2	1	RES1	0.000	
5	  C2	14.083	50.824	81.241	C.2	1	RES1	0.000	
6	  N2	12.812	54.157	90.971	N.pl3	1	RES1	0.000	
7	  O2	15.789	55.555	89.547	O.3	1	RES1	0.000	
8	  C3	14.309	51.424	82.479	C.2	1	RES1	0.000	
9	  N3	11.419	54.601	94.265	N.pl3	1	RES1	0.000	
10	  O3	10.696	53.795	91.752	O.2	1	RES1	0.000	
11	  C4	13.502	51.424	83.709	C.2	1	RES1	0.000	
12	  O4	12.715	56.477	94.657	O.2	1	RES1	0.000	
13	  C5	13.290	52.620	84.410	C.2	1	RES1	0.000	
14	  O5	10.794	57.701	96.159	O.3	1	RES1	0.000	
15	  C6	12.485	52.651	85.546	C.2	1	RES1	0.000	
16	  C7	11.852	51.478	86.011	C.2	1	RES1	0.000	
17	  C8	11.008	51.532	87.238	C.3	1	RES1	0.000	
18	  C9	12.241	52.817	89.002	C.2	1	RES1	0.000	
19	 C10	12.388	54.207	89.577	C.3	1	RES1	0.000	
20	 C11	13.513	54.961	88.882	C.3	1	RES1	0.000	
21	 C12	14.757	54.595	89.692	C.3	1	RES1	0.000	
22	 N12	15.080	50.980	80.313	N.2	1	RES1	0.000	
23	 C13	14.211	54.489	91.122	C.3	1	RES1	0.000	
24	 C14	11.883	53.946	92.011	C.2	1	RES1	0.000	
25	 C15	12.399	53.882	93.440	C.3	1	RES1	0.000	
26	 C16	11.680	55.868	94.804	C.2	1	RES1	0.000	
27	 C17	10.490	56.431	95.558	C.3	1	RES1	0.000	
28	 C54	12.688	52.434	93.990	C.3	1	RES1	0.000	
29	 C55	11.385	51.702	94.247	C.3	1	RES1	0.000	
30	 C56	13.472	52.528	95.328	C.3	1	RES1	0.000	
31	 C57	13.583	51.616	92.999	C.3	1	RES1	0.000	
32	 C58	12.064	50.305	85.308	C.2	1	RES1	0.000	
33	 C59	12.842	50.276	84.180	C.2	1	RES1	0.000	
34	 C60	16.049	51.701	80.821	C.2	1	RES1	0.000	
@<TRIPOS>BOND
1 1 5 1
2 2 17 1
3 2 18 1
4 3 18 2
5 4 8 ar
6 4 34 ar
7 5 8 ar
8 8 11 1
9 11 13 ar
10 11 33 ar
11 13 15 ar
12 15 16 ar
13 16 17 1
14 6 19 1
15 18 19 1
16 19 20 1
17 20 21 1
18 7 21 1
19 21 23 1
20 5 22 ar
21 22 34 ar
22 6 23 1
23 6 24 1
24 10 24 2
25 24 25 1
26 9 25 1
27 25 28 1
28 9 26 1
29 12 26 2
30 26 27 1
31 14 27 1
32 28 29 1
33 28 30 1
34 28 31 1
35 16 32 ar
36 32 33 ar
@<TRIPOS>SUBSTRUCTURE
1	RES1	1	GROUP	1 ****	RES
