# created with PyMOL 2.5.2
@<TRIPOS>MOLECULE
BRD4_7BQU_E3ligase
19 21 1                 
SMALL
USER_CHARGES
@<TRIPOS>ATOM
1	  N6	25.445	17.695	13.143	N.2	1	RES1	0.000	
2	  N7	25.072	19.878	16.054	N.pl3	1	RES1	0.000	
3	 O13	27.385	17.209	11.938	O.2	1	RES1	0.000	
4	 O14	26.314	20.326	17.900	O.2	1	RES1	0.000	
5	 O15	23.766	19.610	14.233	O.2	1	RES1	0.000	
6	 O16	23.136	17.682	13.676	O.2	1	RES1	0.000	
7	 C35	25.527	15.509	10.235	C.2	1	RES1	0.000	
8	 C36	24.437	14.858	9.641	C.2	1	RES1	0.000	
9	 C37	23.165	14.992	10.186	C.2	1	RES1	0.000	
10	 C38	22.943	15.797	11.299	C.2	1	RES1	0.000	
11	 C39	24.019	16.452	11.866	C.2	1	RES1	0.000	
12	 C40	25.293	16.294	11.332	C.2	1	RES1	0.000	
13	 C41	26.207	17.090	12.163	C.2	1	RES1	0.000	
14	 C42	25.972	18.605	14.159	C.3	1	RES1	0.000	
15	 C43	26.832	17.944	15.211	C.3	1	RES1	0.000	
16	 C44	27.347	19.010	16.194	C.3	1	RES1	0.000	
17	 C45	26.209	19.776	16.824	C.2	1	RES1	0.000	
18	 C46	24.820	19.369	14.796	C.2	1	RES1	0.000	
19	 C47	24.106	17.357	12.988	C.2	1	RES1	0.000	
@<TRIPOS>BOND
1 3 13 2
2 4 17 2
3 5 18 2
4 6 19 2
5 7 8 ar
6 7 12 ar
7 8 9 ar
8 9 10 ar
9 10 11 ar
10 11 12 ar
11 11 19 ar
12 12 13 ar
13 1 13 ar
14 1 14 1
15 14 15 1
16 14 18 1
17 15 16 1
18 16 17 1
19 2 17 1
20 2 18 1
21 1 19 ar
@<TRIPOS>SUBSTRUCTURE
1	RES1	1	GROUP	1 ****	RES
