# created with PyMOL 2.5.2
@<TRIPOS>MOLECULE
EGFR_5NVV_E3ligase
34 36 1                 
SMALL
USER_CHARGES
@<TRIPOS>ATOM
1	  C1	12.886	49.947	80.769	C.3	1	RES1	0.000	
2	  N1	11.303	52.916	87.953	N.pl3	1	RES1	0.000	
3	  O1	12.936	51.959	89.284	O.2	1	RES1	0.000	
4	  S1	15.851	52.050	82.451	S.2	1	RES1	0.000	
5	  C2	14.061	50.745	81.206	C.2	1	RES1	0.000	
6	  N2	12.837	54.198	91.002	N.pl3	1	RES1	0.000	
7	  O2	15.788	55.696	89.612	O.3	1	RES1	0.000	
8	  C3	14.283	51.320	82.425	C.2	1	RES1	0.000	
9	  N3	11.438	54.550	94.300	N.pl3	1	RES1	0.000	
10	  O3	10.730	53.773	91.780	O.2	1	RES1	0.000	
11	  C4	13.460	51.366	83.664	C.2	1	RES1	0.000	
12	  O4	12.675	56.437	94.742	O.2	1	RES1	0.000	
13	  C5	13.317	52.594	84.339	C.2	1	RES1	0.000	
14	  O5	10.658	57.604	96.229	O.3	1	RES1	0.000	
15	  C6	12.541	52.687	85.491	C.2	1	RES1	0.000	
16	  C7	11.872	51.579	85.985	C.2	1	RES1	0.000	
17	  C8	11.015	51.670	87.225	C.3	1	RES1	0.000	
18	  C9	12.256	52.932	88.963	C.2	1	RES1	0.000	
19	 C10	12.404	54.305	89.610	C.3	1	RES1	0.000	
20	 C11	13.519	55.110	88.939	C.3	1	RES1	0.000	
21	 C12	14.771	54.686	89.731	C.3	1	RES1	0.000	
22	 N12	15.078	50.882	80.283	N.2	1	RES1	0.000	
23	 C13	14.235	54.575	91.154	C.3	1	RES1	0.000	
24	 C14	11.907	53.941	92.030	C.2	1	RES1	0.000	
25	 C15	12.434	53.862	93.472	C.3	1	RES1	0.000	
26	 C16	11.626	55.804	94.859	C.2	1	RES1	0.000	
27	 C17	10.435	56.331	95.604	C.3	1	RES1	0.000	
28	 C50	12.747	52.407	93.963	C.3	1	RES1	0.000	
29	 C51	11.411	51.644	94.102	C.3	1	RES1	0.000	
30	 C52	13.418	52.445	95.360	C.3	1	RES1	0.000	
31	 C53	13.623	51.639	92.989	C.3	1	RES1	0.000	
32	 C54	11.987	50.352	85.314	C.2	1	RES1	0.000	
33	 C55	12.781	50.266	84.170	C.2	1	RES1	0.000	
34	 C56	16.067	51.582	80.814	C.2	1	RES1	0.000	
@<TRIPOS>BOND
1 1 5 1
2 2 17 1
3 2 18 1
4 3 18 2
5 4 8 ar
6 4 34 ar
7 5 8 ar
8 8 11 1
9 11 13 ar
10 11 33 ar
11 13 15 ar
12 15 16 ar
13 16 17 1
14 6 19 1
15 18 19 1
16 19 20 1
17 20 21 1
18 7 21 1
19 21 23 1
20 5 22 ar
21 22 34 ar
22 6 23 1
23 6 24 1
24 10 24 2
25 24 25 1
26 9 25 1
27 25 28 1
28 9 26 1
29 12 26 2
30 26 27 1
31 14 27 1
32 28 29 1
33 28 30 1
34 28 31 1
35 16 32 ar
36 32 33 ar
@<TRIPOS>SUBSTRUCTURE
1	RES1	1	GROUP	1 ****	RES
