# created with PyMOL 2.5.2
@<TRIPOS>MOLECULE
EGFR_5NVV_E3ligase
34 36 1                 
SMALL
USER_CHARGES
@<TRIPOS>ATOM
1	  C1	12.949	49.953	80.632	C.3	1	RES1	0.000	
2	  N1	11.333	52.922	87.822	N.pl3	1	RES1	0.000	
3	  O1	12.893	51.974	89.195	O.2	1	RES1	0.000	
4	  S1	15.972	51.961	82.302	S.2	1	RES1	0.000	
5	  C2	14.131	50.681	81.070	C.2	1	RES1	0.000	
6	  N2	12.667	54.165	91.061	N.pl3	1	RES1	0.000	
7	  O2	15.698	55.646	89.960	O.3	1	RES1	0.000	
8	  C3	14.379	51.287	82.307	C.2	1	RES1	0.000	
9	  N3	11.382	54.543	94.412	N.pl3	1	RES1	0.000	
10	  O3	10.612	53.669	91.978	O.2	1	RES1	0.000	
11	  C4	13.522	51.419	83.512	C.2	1	RES1	0.000	
12	  O4	12.491	56.566	94.721	O.2	1	RES1	0.000	
13	  C5	12.815	50.313	83.944	C.2	1	RES1	0.000	
14	  O5	10.459	57.603	96.263	O.3	1	RES1	0.000	
15	  C6	12.022	50.399	85.128	C.2	1	RES1	0.000	
16	  C7	11.920	51.619	85.814	C.2	1	RES1	0.000	
17	  C8	11.079	51.733	87.038	C.3	1	RES1	0.000	
18	  C9	12.243	52.937	88.880	C.2	1	RES1	0.000	
19	 C10	12.351	54.266	89.646	C.3	1	RES1	0.000	
20	 C11	13.519	55.081	89.083	C.3	1	RES1	0.000	
21	 C12	14.682	54.671	89.935	C.3	1	RES1	0.000	
22	 N12	15.175	50.789	80.180	N.2	1	RES1	0.000	
23	 C13	14.051	54.460	91.318	C.3	1	RES1	0.000	
24	 C14	11.806	53.888	92.141	C.2	1	RES1	0.000	
25	 C15	12.401	53.912	93.573	C.3	1	RES1	0.000	
26	 C16	11.532	55.850	94.901	C.2	1	RES1	0.000	
27	 C17	10.319	56.305	95.704	C.3	1	RES1	0.000	
28	 C52	12.778	52.498	94.114	C.3	1	RES1	0.000	
29	 C53	11.582	51.542	94.192	C.3	1	RES1	0.000	
30	 C54	13.417	52.617	95.515	C.3	1	RES1	0.000	
31	 C55	13.833	51.832	93.174	C.3	1	RES1	0.000	
32	 C56	12.687	52.703	85.370	C.2	1	RES1	0.000	
33	 C57	13.465	52.616	84.231	C.2	1	RES1	0.000	
34	 C58	16.188	51.442	80.702	C.2	1	RES1	0.000	
@<TRIPOS>BOND
1 1 5 1
2 2 17 1
3 2 18 1
4 3 18 2
5 4 8 ar
6 4 34 ar
7 5 8 ar
8 8 11 1
9 11 13 ar
10 11 33 ar
11 13 15 ar
12 15 16 ar
13 16 17 1
14 6 19 1
15 18 19 1
16 19 20 1
17 20 21 1
18 7 21 1
19 21 23 1
20 5 22 ar
21 22 34 ar
22 6 23 1
23 6 24 1
24 10 24 2
25 24 25 1
26 9 25 1
27 25 28 1
28 9 26 1
29 12 26 2
30 26 27 1
31 14 27 1
32 28 29 1
33 28 30 1
34 28 31 1
35 16 32 ar
36 32 33 ar
@<TRIPOS>SUBSTRUCTURE
1	RES1	1	GROUP	1 ****	RES
