# created with PyMOL 2.5.2
@<TRIPOS>MOLECULE
HDAC2_4W9H_E3ligase
33 35 1                 
SMALL
USER_CHARGES
@<TRIPOS>ATOM
1	  C1	12.148	49.915	80.533	C.3	1	RES1	0.000	
2	  N1	11.201	53.090	87.705	N.pl3	1	RES1	0.000	
3	  O1	12.296	51.825	89.280	O.2	1	RES1	0.000	
4	  C2	13.502	50.415	80.965	C.2	1	RES1	0.000	
5	  N2	12.810	54.084	90.877	N.pl3	1	RES1	0.000	
6	  O2	14.085	56.715	90.054	O.3	1	RES1	0.000	
7	  S2	15.506	51.437	82.108	S.2	1	RES1	0.000	
8	  C3	13.838	50.996	82.165	C.2	1	RES1	0.000	
9	  N3	11.108	54.507	94.002	N.pl3	1	RES1	0.000	
10	  O3	10.630	53.670	91.436	O.2	1	RES1	0.000	
11	  C4	13.044	51.254	83.367	C.2	1	RES1	0.000	
12	  O4	12.428	56.247	94.711	O.2	1	RES1	0.000	
13	  C5	13.110	52.486	84.035	C.2	1	RES1	0.000	
14	  C6	12.346	52.717	85.174	C.2	1	RES1	0.000	
15	  C7	11.479	51.754	85.678	C.2	1	RES1	0.000	
16	  N7	14.502	50.285	80.026	N.2	1	RES1	0.000	
17	  C8	10.666	51.998	86.939	C.3	1	RES1	0.000	
18	  C9	12.038	52.920	88.786	C.2	1	RES1	0.000	
19	 C10	12.499	54.225	89.457	C.3	1	RES1	0.000	
20	 C11	13.801	54.675	88.799	C.3	1	RES1	0.000	
21	 C12	14.534	55.369	89.930	C.3	1	RES1	0.000	
22	 C13	14.156	54.594	91.181	C.3	1	RES1	0.000	
23	 C14	11.768	53.821	91.811	C.2	1	RES1	0.000	
24	 C15	12.150	53.732	93.305	C.3	1	RES1	0.000	
25	 C16	11.339	55.724	94.631	C.2	1	RES1	0.000	
26	 C17	10.105	56.329	95.261	C.3	1	RES1	0.000	
27	 C42	12.259	52.299	93.847	C.3	1	RES1	0.000	
28	 C43	10.866	51.635	93.860	C.3	1	RES1	0.000	
29	 C44	12.760	52.314	95.295	C.3	1	RES1	0.000	
30	 C45	13.199	51.392	93.008	C.3	1	RES1	0.000	
31	 C46	11.405	50.530	85.011	C.2	1	RES1	0.000	
32	 C47	12.190	50.272	83.891	C.2	1	RES1	0.000	
33	 C48	15.603	50.790	80.518	C.2	1	RES1	0.000	
@<TRIPOS>BOND
1 1 4 1
2 2 17 1
3 2 18 1
4 3 18 2
5 4 8 ar
6 4 16 ar
7 7 8 ar
8 7 33 ar
9 8 11 1
10 11 13 ar
11 11 32 ar
12 13 14 ar
13 14 15 ar
14 15 17 1
15 5 19 1
16 18 19 1
17 19 20 1
18 20 21 1
19 6 21 1
20 21 22 1
21 5 22 1
22 5 23 1
23 10 23 2
24 23 24 1
25 9 24 1
26 24 27 1
27 9 25 1
28 12 25 2
29 25 26 1
30 27 28 1
31 27 29 1
32 27 30 1
33 15 31 ar
34 31 32 ar
35 16 33 ar
@<TRIPOS>SUBSTRUCTURE
1	RES1	1	GROUP	1 ****	RES
