# created with PyMOL 2.5.2
@<TRIPOS>MOLECULE
HDAC2_4W9H_E3ligase
33 35 1                 
SMALL
USER_CHARGES
@<TRIPOS>ATOM
1	  C1	12.242	49.852	80.495	C.3	1	RES1	0.000	
2	  N1	11.188	53.080	87.675	N.pl3	1	RES1	0.000	
3	  O1	12.299	51.792	89.200	O.2	1	RES1	0.000	
4	  C2	13.504	50.445	80.956	C.2	1	RES1	0.000	
5	  N2	12.812	54.083	90.875	N.pl3	1	RES1	0.000	
6	  O2	14.126	56.679	90.027	O.3	1	RES1	0.000	
7	  S2	15.513	51.462	82.206	S.2	1	RES1	0.000	
8	  C3	13.821	50.989	82.184	C.2	1	RES1	0.000	
9	  N3	11.106	54.531	93.997	N.pl3	1	RES1	0.000	
10	  O3	10.630	53.623	91.449	O.2	1	RES1	0.000	
11	  C4	13.002	51.218	83.385	C.2	1	RES1	0.000	
12	  O4	12.451	56.288	94.702	O.2	1	RES1	0.000	
13	  C5	13.096	52.459	84.057	C.2	1	RES1	0.000	
14	  C6	12.314	52.709	85.168	C.2	1	RES1	0.000	
15	  C7	11.415	51.750	85.664	C.2	1	RES1	0.000	
16	  N7	14.584	50.407	80.049	N.2	1	RES1	0.000	
17	  C8	10.610	51.988	86.896	C.3	1	RES1	0.000	
18	  C9	12.024	52.872	88.756	C.2	1	RES1	0.000	
19	 C10	12.495	54.176	89.454	C.3	1	RES1	0.000	
20	 C11	13.800	54.602	88.792	C.3	1	RES1	0.000	
21	 C12	14.560	55.329	89.921	C.3	1	RES1	0.000	
22	 C13	14.148	54.548	91.157	C.3	1	RES1	0.000	
23	 C14	11.779	53.836	91.789	C.2	1	RES1	0.000	
24	 C15	12.161	53.756	93.308	C.3	1	RES1	0.000	
25	 C16	11.349	55.755	94.622	C.2	1	RES1	0.000	
26	 C17	10.108	56.347	95.204	C.3	1	RES1	0.000	
27	 C45	12.282	52.305	93.889	C.3	1	RES1	0.000	
28	 C46	10.891	51.655	93.931	C.3	1	RES1	0.000	
29	 C47	12.797	52.358	95.322	C.3	1	RES1	0.000	
30	 C48	13.217	51.406	93.083	C.3	1	RES1	0.000	
31	 C49	11.315	50.525	84.972	C.2	1	RES1	0.000	
32	 C50	12.085	50.277	83.855	C.2	1	RES1	0.000	
33	 C51	15.645	50.911	80.593	C.2	1	RES1	0.000	
@<TRIPOS>BOND
1 1 4 1
2 2 17 1
3 2 18 1
4 3 18 2
5 4 8 ar
6 4 16 ar
7 7 8 ar
8 7 33 ar
9 8 11 1
10 11 13 ar
11 11 32 ar
12 13 14 ar
13 14 15 ar
14 15 17 1
15 5 19 1
16 18 19 1
17 19 20 1
18 20 21 1
19 6 21 1
20 21 22 1
21 5 22 1
22 5 23 1
23 10 23 2
24 23 24 1
25 9 24 1
26 24 27 1
27 9 25 1
28 12 25 2
29 25 26 1
30 27 28 1
31 27 29 1
32 27 30 1
33 15 31 ar
34 31 32 ar
35 16 33 ar
@<TRIPOS>SUBSTRUCTURE
1	RES1	1	GROUP	1 ****	RES
