# created with PyMOL 2.5.2
@<TRIPOS>MOLECULE
HDAC2_5NVV_E3ligase
34 36 1                 
SMALL
USER_CHARGES
@<TRIPOS>ATOM
1	  C1	12.831	49.987	80.796	C.3	1	RES1	0.000	
2	  N1	11.327	52.873	88.002	N.pl3	1	RES1	0.000	
3	  O1	12.946	51.980	89.353	O.2	1	RES1	0.000	
4	  C2	14.035	50.725	81.213	C.2	1	RES1	0.000	
5	  N2	12.849	54.209	91.011	N.pl3	1	RES1	0.000	
6	  O2	15.760	55.801	89.713	O.3	1	RES1	0.000	
7	  S2	15.867	52.010	82.425	S.2	1	RES1	0.000	
8	  C3	14.271	51.335	82.452	C.2	1	RES1	0.000	
9	  N3	11.440	54.533	94.299	N.pl3	1	RES1	0.000	
10	  O3	10.731	53.769	91.750	O.2	1	RES1	0.000	
11	  C4	13.441	51.424	83.643	C.2	1	RES1	0.000	
12	  O4	12.674	56.423	94.730	O.2	1	RES1	0.000	
13	  C5	12.755	50.318	84.135	C.2	1	RES1	0.000	
14	  O5	10.645	57.580	96.150	O.3	1	RES1	0.000	
15	  C6	11.991	50.374	85.275	C.2	1	RES1	0.000	
16	  C7	11.856	51.567	85.999	C.2	1	RES1	0.000	
17	  N7	15.058	50.825	80.287	N.2	1	RES1	0.000	
18	  C8	11.035	51.651	87.263	C.3	1	RES1	0.000	
19	  C9	12.284	52.918	88.991	C.2	1	RES1	0.000	
20	 C10	12.414	54.325	89.606	C.3	1	RES1	0.000	
21	 C11	13.528	55.160	88.970	C.3	1	RES1	0.000	
22	 C12	14.771	54.751	89.753	C.3	1	RES1	0.000	
23	 C13	14.240	54.599	91.147	C.3	1	RES1	0.000	
24	 C14	11.911	53.929	92.003	C.2	1	RES1	0.000	
25	 C15	12.454	53.864	93.462	C.3	1	RES1	0.000	
26	 C16	11.623	55.786	94.843	C.2	1	RES1	0.000	
27	 C17	10.402	56.320	95.550	C.3	1	RES1	0.000	
28	 C41	12.758	52.398	93.935	C.3	1	RES1	0.000	
29	 C42	11.416	51.614	94.082	C.3	1	RES1	0.000	
30	 C43	13.432	52.404	95.296	C.3	1	RES1	0.000	
31	 C44	13.626	51.624	92.939	C.3	1	RES1	0.000	
32	 C45	12.575	52.699	85.542	C.2	1	RES1	0.000	
33	 C46	13.343	52.610	84.392	C.2	1	RES1	0.000	
34	 C47	16.064	51.477	80.818	C.2	1	RES1	0.000	
@<TRIPOS>BOND
1 1 4 1
2 2 18 1
3 2 19 1
4 3 19 2
5 4 8 ar
6 4 17 ar
7 7 8 ar
8 7 34 ar
9 8 11 1
10 11 13 ar
11 11 33 ar
12 13 15 ar
13 15 16 ar
14 16 18 1
15 5 20 1
16 19 20 1
17 20 21 1
18 21 22 1
19 6 22 1
20 22 23 1
21 5 23 1
22 5 24 1
23 10 24 2
24 24 25 1
25 9 25 1
26 25 28 1
27 9 26 1
28 12 26 2
29 26 27 1
30 14 27 1
31 28 29 1
32 28 30 1
33 28 31 1
34 16 32 ar
35 32 33 ar
36 17 34 ar
@<TRIPOS>SUBSTRUCTURE
1	RES1	1	GROUP	1 ****	RES
