# created with PyMOL 2.5.2
@<TRIPOS>MOLECULE
EGFR_4W9H_E3ligase
33 35 1                 
SMALL
USER_CHARGES
@<TRIPOS>ATOM
1	  S1	15.512	51.356	82.056	S.2	1	RES1	0.000	
2	  O4	12.218	56.285	94.729	O.2	1	RES1	0.000	
3	  O5	10.589	53.628	91.381	O.2	1	RES1	0.000	
4	  N6	10.967	54.489	93.971	N.pl3	1	RES1	0.000	
5	  O6	14.183	56.698	90.313	O.3	1	RES1	0.000	
6	  N7	12.760	54.107	90.897	N.pl3	1	RES1	0.000	
7	  O7	12.412	51.895	89.262	O.2	1	RES1	0.000	
8	  N8	11.286	53.132	87.701	N.pl3	1	RES1	0.000	
9	  N9	14.478	50.291	79.987	N.2	1	RES1	0.000	
10	 C22	9.897	56.222	95.230	C.3	1	RES1	0.000	
11	 C23	11.139	55.692	94.622	C.2	1	RES1	0.000	
12	 C24	12.066	53.778	93.279	C.3	1	RES1	0.000	
13	 C25	11.731	53.851	91.780	C.2	1	RES1	0.000	
14	 C26	14.114	54.473	91.233	C.3	1	RES1	0.000	
15	 C27	14.583	55.359	90.078	C.3	1	RES1	0.000	
16	 C28	13.824	54.799	88.878	C.3	1	RES1	0.000	
17	 C29	12.510	54.303	89.461	C.3	1	RES1	0.000	
18	 C30	12.116	52.963	88.796	C.2	1	RES1	0.000	
19	 C31	10.762	52.002	86.940	C.3	1	RES1	0.000	
20	 C32	11.562	51.758	85.706	C.2	1	RES1	0.000	
21	 C33	12.429	52.718	85.153	C.2	1	RES1	0.000	
22	 C34	13.154	52.460	84.023	C.2	1	RES1	0.000	
23	 C35	13.056	51.245	83.360	C.2	1	RES1	0.000	
24	 C36	13.867	50.974	82.140	C.2	1	RES1	0.000	
25	 C37	13.461	50.386	80.906	C.2	1	RES1	0.000	
26	 C38	12.138	49.857	80.521	C.3	1	RES1	0.000	
27	 C39	15.601	50.777	80.477	C.2	1	RES1	0.000	
28	 C40	12.207	50.260	83.872	C.2	1	RES1	0.000	
29	 C41	11.456	50.504	85.032	C.2	1	RES1	0.000	
30	 C42	12.262	52.317	93.824	C.3	1	RES1	0.000	
31	 C43	12.702	52.358	95.284	C.3	1	RES1	0.000	
32	 C44	13.361	51.594	93.020	C.3	1	RES1	0.000	
33	 C45	10.964	51.472	93.707	C.3	1	RES1	0.000	
@<TRIPOS>BOND
1 1 24 ar
2 1 27 ar
3 10 11 1
4 2 11 2
5 4 11 1
6 4 12 1
7 12 13 1
8 12 30 1
9 3 13 2
10 6 13 1
11 6 14 1
12 14 15 1
13 5 15 1
14 15 16 1
15 16 17 1
16 6 17 1
17 17 18 1
18 7 18 2
19 8 18 1
20 8 19 1
21 19 20 1
22 20 21 ar
23 20 29 ar
24 21 22 ar
25 22 23 ar
26 23 24 1
27 23 28 ar
28 24 25 ar
29 9 25 ar
30 25 26 1
31 9 27 ar
32 28 29 ar
33 30 31 1
34 30 32 1
35 30 33 1
@<TRIPOS>SUBSTRUCTURE
1	RES1	1	GROUP	1 ****	RES
