# created with PyMOL 2.5.2
@<TRIPOS>MOLECULE
EGFR_4W9H_E3ligase
33 35 1                 
SMALL
USER_CHARGES
@<TRIPOS>ATOM
1	  S1	15.526	51.651	82.197	S.2	1	RES1	0.000	
2	  O4	12.262	56.415	94.680	O.2	1	RES1	0.000	
3	  O5	10.361	53.777	91.551	O.2	1	RES1	0.000	
4	  N6	10.975	54.568	94.067	N.pl3	1	RES1	0.000	
5	  O6	15.509	55.648	89.621	O.3	1	RES1	0.000	
6	  N7	12.492	54.185	90.860	N.pl3	1	RES1	0.000	
7	  O7	12.587	51.915	89.188	O.2	1	RES1	0.000	
8	  N8	11.065	52.860	87.753	N.pl3	1	RES1	0.000	
9	  N9	14.626	50.646	80.008	N.2	1	RES1	0.000	
10	 C22	9.999	56.346	95.389	C.3	1	RES1	0.000	
11	 C23	11.217	55.812	94.700	C.2	1	RES1	0.000	
12	 C24	12.000	53.879	93.300	C.3	1	RES1	0.000	
13	 C25	11.535	53.937	91.842	C.2	1	RES1	0.000	
14	 C26	13.908	54.494	91.043	C.3	1	RES1	0.000	
15	 C27	14.488	54.681	89.653	C.3	1	RES1	0.000	
16	 C28	13.283	55.074	88.831	C.3	1	RES1	0.000	
17	 C29	12.132	54.285	89.437	C.3	1	RES1	0.000	
18	 C30	11.973	52.907	88.804	C.2	1	RES1	0.000	
19	 C31	10.737	51.652	87.045	C.3	1	RES1	0.000	
20	 C32	11.529	51.513	85.742	C.2	1	RES1	0.000	
21	 C33	11.579	50.300	85.078	C.2	1	RES1	0.000	
22	 C34	12.328	50.153	83.929	C.2	1	RES1	0.000	
23	 C35	13.090	51.231	83.438	C.2	1	RES1	0.000	
24	 C36	13.898	51.120	82.203	C.2	1	RES1	0.000	
25	 C37	13.598	50.592	80.950	C.2	1	RES1	0.000	
26	 C38	12.313	49.956	80.521	C.3	1	RES1	0.000	
27	 C39	15.666	51.196	80.553	C.2	1	RES1	0.000	
28	 C40	13.033	52.463	84.113	C.2	1	RES1	0.000	
29	 C41	12.256	52.595	85.280	C.2	1	RES1	0.000	
30	 C42	12.267	52.417	93.818	C.3	1	RES1	0.000	
31	 C43	12.796	52.484	95.269	C.3	1	RES1	0.000	
32	 C44	13.335	51.716	92.965	C.3	1	RES1	0.000	
33	 C45	11.008	51.543	93.807	C.3	1	RES1	0.000	
@<TRIPOS>BOND
1 1 24 ar
2 1 27 ar
3 10 11 1
4 2 11 2
5 4 11 1
6 4 12 1
7 12 13 1
8 12 30 1
9 3 13 2
10 6 13 1
11 6 14 1
12 14 15 1
13 5 15 1
14 15 16 1
15 16 17 1
16 6 17 1
17 17 18 1
18 7 18 2
19 8 18 1
20 8 19 1
21 19 20 1
22 20 21 ar
23 20 29 ar
24 21 22 ar
25 22 23 ar
26 23 24 1
27 23 28 ar
28 24 25 ar
29 9 25 ar
30 25 26 1
31 9 27 ar
32 28 29 ar
33 30 31 1
34 30 32 1
35 30 33 1
@<TRIPOS>SUBSTRUCTURE
1	RES1	1	GROUP	1 ****	RES
