# created with PyMOL 2.5.2
@<TRIPOS>MOLECULE
EGFR_4W9H_E3ligase
33 35 1                 
SMALL
USER_CHARGES
@<TRIPOS>ATOM
1	  S1	15.514	51.401	82.104	S.2	1	RES1	0.000	
2	  O4	12.239	56.297	94.710	O.2	1	RES1	0.000	
3	  O5	10.549	53.662	91.385	O.2	1	RES1	0.000	
4	  N6	10.985	54.501	93.978	N.pl3	1	RES1	0.000	
5	  O6	14.183	56.668	90.299	O.3	1	RES1	0.000	
6	  N7	12.768	54.088	90.886	N.pl3	1	RES1	0.000	
7	  O7	12.403	51.885	89.272	O.2	1	RES1	0.000	
8	  N8	11.276	53.120	87.698	N.pl3	1	RES1	0.000	
9	  N9	14.534	50.320	79.982	N.2	1	RES1	0.000	
10	 C24	9.939	56.247	95.246	C.3	1	RES1	0.000	
11	 C25	11.187	55.694	94.619	C.2	1	RES1	0.000	
12	 C26	12.059	53.780	93.287	C.3	1	RES1	0.000	
13	 C27	11.712	53.857	91.771	C.2	1	RES1	0.000	
14	 C28	14.142	54.462	91.215	C.3	1	RES1	0.000	
15	 C29	14.590	55.347	90.060	C.3	1	RES1	0.000	
16	 C30	13.821	54.785	88.860	C.3	1	RES1	0.000	
17	 C31	12.524	54.290	89.453	C.3	1	RES1	0.000	
18	 C32	12.113	52.962	88.803	C.2	1	RES1	0.000	
19	 C33	10.748	51.969	86.958	C.3	1	RES1	0.000	
20	 C34	11.540	51.710	85.696	C.2	1	RES1	0.000	
21	 C35	12.377	52.706	85.166	C.2	1	RES1	0.000	
22	 C36	13.087	52.476	84.009	C.2	1	RES1	0.000	
23	 C37	13.019	51.254	83.340	C.2	1	RES1	0.000	
24	 C38	13.818	50.980	82.150	C.2	1	RES1	0.000	
25	 C39	13.496	50.396	80.929	C.2	1	RES1	0.000	
26	 C40	12.192	49.849	80.492	C.3	1	RES1	0.000	
27	 C41	15.629	50.792	80.520	C.2	1	RES1	0.000	
28	 C42	12.197	50.263	83.880	C.2	1	RES1	0.000	
29	 C43	11.476	50.503	85.050	C.2	1	RES1	0.000	
30	 C44	12.251	52.314	93.811	C.3	1	RES1	0.000	
31	 C45	12.674	52.346	95.288	C.3	1	RES1	0.000	
32	 C46	13.366	51.618	93.005	C.3	1	RES1	0.000	
33	 C47	10.962	51.469	93.706	C.3	1	RES1	0.000	
@<TRIPOS>BOND
1 1 24 ar
2 1 27 ar
3 10 11 1
4 2 11 2
5 4 11 1
6 4 12 1
7 12 13 1
8 12 30 1
9 3 13 2
10 6 13 1
11 6 14 1
12 14 15 1
13 5 15 1
14 15 16 1
15 16 17 1
16 6 17 1
17 17 18 1
18 7 18 2
19 8 18 1
20 8 19 1
21 19 20 1
22 20 21 ar
23 20 29 ar
24 21 22 ar
25 22 23 ar
26 23 24 1
27 23 28 ar
28 24 25 ar
29 9 25 ar
30 25 26 1
31 9 27 ar
32 28 29 ar
33 30 31 1
34 30 32 1
35 30 33 1
@<TRIPOS>SUBSTRUCTURE
1	RES1	1	GROUP	1 ****	RES
