# created with PyMOL 2.5.2
@<TRIPOS>MOLECULE
EGFR_4W9H_E3ligase
33 35 1                 
SMALL
USER_CHARGES
@<TRIPOS>ATOM
1	  S1	15.500	51.458	82.173	S.2	1	RES1	0.000	
2	  O4	12.434	56.247	94.709	O.2	1	RES1	0.000	
3	  O5	10.627	53.654	91.442	O.2	1	RES1	0.000	
4	  N6	11.114	54.512	93.975	N.pl3	1	RES1	0.000	
5	  O6	14.098	56.707	90.055	O.3	1	RES1	0.000	
6	  N7	12.804	54.075	90.898	N.pl3	1	RES1	0.000	
7	  O7	12.280	51.831	89.236	O.2	1	RES1	0.000	
8	  N8	11.201	53.089	87.660	N.pl3	1	RES1	0.000	
9	  N9	14.554	50.356	80.064	N.2	1	RES1	0.000	
10	 C24	10.108	56.341	95.224	C.3	1	RES1	0.000	
11	 C25	11.345	55.748	94.611	C.2	1	RES1	0.000	
12	 C26	12.145	53.735	93.304	C.3	1	RES1	0.000	
13	 C27	11.766	53.827	91.812	C.2	1	RES1	0.000	
14	 C28	14.163	54.565	91.157	C.3	1	RES1	0.000	
15	 C29	14.567	55.321	89.921	C.3	1	RES1	0.000	
16	 C30	13.827	54.640	88.791	C.3	1	RES1	0.000	
17	 C31	12.508	54.210	89.446	C.3	1	RES1	0.000	
18	 C32	12.041	52.905	88.758	C.2	1	RES1	0.000	
19	 C33	10.643	52.003	86.908	C.3	1	RES1	0.000	
20	 C34	11.414	51.750	85.659	C.2	1	RES1	0.000	
21	 C35	12.284	52.719	85.163	C.2	1	RES1	0.000	
22	 C36	13.069	52.475	84.033	C.2	1	RES1	0.000	
23	 C37	13.018	51.236	83.372	C.2	1	RES1	0.000	
24	 C38	13.819	50.996	82.196	C.2	1	RES1	0.000	
25	 C39	13.530	50.431	80.948	C.2	1	RES1	0.000	
26	 C40	12.216	49.813	80.550	C.3	1	RES1	0.000	
27	 C41	15.639	50.884	80.585	C.2	1	RES1	0.000	
28	 C42	12.132	50.270	83.886	C.2	1	RES1	0.000	
29	 C43	11.350	50.535	85.000	C.2	1	RES1	0.000	
30	 C44	12.260	52.302	93.863	C.3	1	RES1	0.000	
31	 C45	12.771	52.327	95.291	C.3	1	RES1	0.000	
32	 C46	13.248	51.434	93.040	C.3	1	RES1	0.000	
33	 C47	10.891	51.596	93.872	C.3	1	RES1	0.000	
@<TRIPOS>BOND
1 1 24 ar
2 1 27 ar
3 10 11 1
4 2 11 2
5 4 11 1
6 4 12 1
7 12 13 1
8 12 30 1
9 3 13 2
10 6 13 1
11 6 14 1
12 14 15 1
13 5 15 1
14 15 16 1
15 16 17 1
16 6 17 1
17 17 18 1
18 7 18 2
19 8 18 1
20 8 19 1
21 19 20 1
22 20 21 ar
23 20 29 ar
24 21 22 ar
25 22 23 ar
26 23 24 1
27 23 28 ar
28 24 25 ar
29 9 25 ar
30 25 26 1
31 9 27 ar
32 28 29 ar
33 30 31 1
34 30 32 1
35 30 33 1
@<TRIPOS>SUBSTRUCTURE
1	RES1	1	GROUP	1 ****	RES
