# created with PyMOL 2.5.2
@<TRIPOS>MOLECULE
EGFR_4W9H_E3ligase
33 35 1                 
SMALL
USER_CHARGES
@<TRIPOS>ATOM
1	  S1	15.527	51.371	82.175	S.2	1	RES1	0.000	
2	  O4	12.400	56.275	94.693	O.2	1	RES1	0.000	
3	  O5	10.617	53.652	91.445	O.2	1	RES1	0.000	
4	  N6	11.075	54.532	94.004	N.pl3	1	RES1	0.000	
5	  O6	14.135	56.676	90.076	O.3	1	RES1	0.000	
6	  N7	12.785	54.079	90.866	N.pl3	1	RES1	0.000	
7	  O7	12.241	51.787	89.279	O.2	1	RES1	0.000	
8	  N8	11.195	53.075	87.691	N.pl3	1	RES1	0.000	
9	  N9	14.539	50.345	80.026	N.2	1	RES1	0.000	
10	 C25	10.085	56.359	95.202	C.3	1	RES1	0.000	
11	 C26	11.297	55.751	94.627	C.2	1	RES1	0.000	
12	 C27	12.129	53.744	93.317	C.3	1	RES1	0.000	
13	 C28	11.761	53.811	91.824	C.2	1	RES1	0.000	
14	 C29	14.149	54.505	91.157	C.3	1	RES1	0.000	
15	 C30	14.557	55.327	89.936	C.3	1	RES1	0.000	
16	 C31	13.784	54.687	88.790	C.3	1	RES1	0.000	
17	 C32	12.490	54.162	89.449	C.3	1	RES1	0.000	
18	 C33	12.032	52.882	88.788	C.2	1	RES1	0.000	
19	 C34	10.649	51.992	86.905	C.3	1	RES1	0.000	
20	 C35	11.439	51.751	85.656	C.2	1	RES1	0.000	
21	 C36	12.311	52.740	85.170	C.2	1	RES1	0.000	
22	 C37	13.089	52.473	84.046	C.2	1	RES1	0.000	
23	 C38	13.014	51.261	83.378	C.2	1	RES1	0.000	
24	 C39	13.855	51.012	82.170	C.2	1	RES1	0.000	
25	 C40	13.514	50.436	80.939	C.2	1	RES1	0.000	
26	 C41	12.179	49.938	80.537	C.3	1	RES1	0.000	
27	 C42	15.635	50.819	80.562	C.2	1	RES1	0.000	
28	 C43	12.145	50.294	83.854	C.2	1	RES1	0.000	
29	 C44	11.347	50.528	84.984	C.2	1	RES1	0.000	
30	 C45	12.300	52.341	93.868	C.3	1	RES1	0.000	
31	 C46	13.306	51.457	93.010	C.3	1	RES1	0.000	
32	 C47	12.841	52.357	95.299	C.3	1	RES1	0.000	
33	 C48	10.948	51.591	93.910	C.3	1	RES1	0.000	
@<TRIPOS>BOND
1 1 24 ar
2 1 27 ar
3 10 11 1
4 2 11 2
5 4 11 1
6 4 12 1
7 12 13 1
8 12 30 1
9 3 13 2
10 6 13 1
11 6 14 1
12 14 15 1
13 5 15 1
14 15 16 1
15 16 17 1
16 6 17 1
17 17 18 1
18 7 18 2
19 8 18 1
20 8 19 1
21 19 20 1
22 20 21 ar
23 20 29 ar
24 21 22 ar
25 22 23 ar
26 23 24 1
27 23 28 ar
28 24 25 ar
29 9 25 ar
30 25 26 1
31 9 27 ar
32 28 29 ar
33 30 31 1
34 30 32 1
35 30 33 1
@<TRIPOS>SUBSTRUCTURE
1	RES1	1	GROUP	1 ****	RES
