# created with PyMOL 2.5.2
@<TRIPOS>MOLECULE
BRD4_6H0G_E3ligase
20 22 1                 
SMALL
USER_CHARGES
@<TRIPOS>ATOM
1	  O2	2.822	53.716	-82.852	O.2	1	RES1	0.000	
2	  O3	3.670	49.720	-77.380	O.2	1	RES1	0.000	
3	  O4	0.212	50.461	-80.222	O.2	1	RES1	0.000	
4	  N5	1.992	54.440	-85.595	N.pl3	1	RES1	0.000	
5	  O5	0.437	49.830	-82.280	O.2	1	RES1	0.000	
6	  N6	1.733	51.752	-82.139	N.2	1	RES1	0.000	
7	  N7	1.983	50.084	-78.854	N.pl3	1	RES1	0.000	
8	 C15	1.327	53.200	-85.446	C.2	1	RES1	0.000	
9	 C16	0.501	52.687	-86.446	C.2	1	RES1	0.000	
10	 C17	-0.215	51.509	-86.273	C.2	1	RES1	0.000	
11	 C18	-0.146	50.795	-85.087	C.2	1	RES1	0.000	
12	 C19	0.653	51.333	-84.070	C.2	1	RES1	0.000	
13	 C20	1.362	52.486	-84.243	C.2	1	RES1	0.000	
14	 C21	2.083	52.775	-82.994	C.2	1	RES1	0.000	
15	 C22	2.260	51.622	-80.756	C.3	1	RES1	0.000	
16	 C23	3.735	51.238	-80.659	C.3	1	RES1	0.000	
17	 C24	4.147	51.176	-79.200	C.3	1	RES1	0.000	
18	 C25	3.279	50.266	-78.397	C.2	1	RES1	0.000	
19	 C26	1.380	50.659	-79.955	C.2	1	RES1	0.000	
20	 C27	0.910	50.843	-82.718	C.2	1	RES1	0.000	
@<TRIPOS>BOND
1 1 14 2
2 4 8 1
3 8 9 ar
4 8 13 ar
5 9 10 ar
6 10 11 ar
7 11 12 ar
8 12 13 ar
9 12 20 ar
10 13 14 ar
11 6 14 ar
12 6 15 1
13 15 16 1
14 15 19 1
15 16 17 1
16 17 18 1
17 2 18 2
18 7 18 1
19 3 19 2
20 7 19 1
21 5 20 2
22 6 20 ar
@<TRIPOS>SUBSTRUCTURE
1	RES1	1	GROUP	1 ****	RES
