# created with PyMOL 2.5.2
@<TRIPOS>MOLECULE
EGFR_4W9H_E3ligase
33 35 1                 
SMALL
USER_CHARGES
@<TRIPOS>ATOM
1	  S1	15.544	51.239	81.937	S.2	1	RES1	0.000	
2	  O4	12.408	56.355	94.682	O.2	1	RES1	0.000	
3	  O5	10.496	53.555	91.594	O.2	1	RES1	0.000	
4	  N6	11.132	54.506	94.121	N.pl3	1	RES1	0.000	
5	  O6	13.967	56.762	90.506	O.3	1	RES1	0.000	
6	  N7	12.585	54.134	90.925	N.pl3	1	RES1	0.000	
7	  O7	12.359	51.939	89.173	O.2	1	RES1	0.000	
8	  N8	11.322	53.218	87.545	N.pl3	1	RES1	0.000	
9	  N9	14.432	50.144	79.902	N.2	1	RES1	0.000	
10	 C25	10.148	56.267	95.506	C.3	1	RES1	0.000	
11	 C26	11.356	55.735	94.735	C.2	1	RES1	0.000	
12	 C27	12.127	53.772	93.372	C.3	1	RES1	0.000	
13	 C28	11.657	53.841	91.887	C.2	1	RES1	0.000	
14	 C29	13.964	54.481	91.288	C.3	1	RES1	0.000	
15	 C30	14.428	55.424	90.195	C.3	1	RES1	0.000	
16	 C31	13.708	54.908	88.957	C.3	1	RES1	0.000	
17	 C32	12.406	54.333	89.466	C.3	1	RES1	0.000	
18	 C33	12.098	53.035	88.693	C.2	1	RES1	0.000	
19	 C34	10.769	52.108	86.794	C.3	1	RES1	0.000	
20	 C35	11.568	51.790	85.579	C.2	1	RES1	0.000	
21	 C36	11.448	50.552	84.941	C.2	1	RES1	0.000	
22	 C37	12.190	50.262	83.802	C.2	1	RES1	0.000	
23	 C38	13.102	51.190	83.270	C.2	1	RES1	0.000	
24	 C39	13.867	50.876	82.043	C.2	1	RES1	0.000	
25	 C40	13.448	50.301	80.854	C.2	1	RES1	0.000	
26	 C41	12.065	49.867	80.461	C.3	1	RES1	0.000	
27	 C42	15.588	50.588	80.351	C.2	1	RES1	0.000	
28	 C43	13.238	52.425	83.916	C.2	1	RES1	0.000	
29	 C44	12.488	52.724	85.066	C.2	1	RES1	0.000	
30	 C45	12.313	52.323	93.896	C.3	1	RES1	0.000	
31	 C46	13.302	51.528	93.005	C.3	1	RES1	0.000	
32	 C47	12.914	52.349	95.327	C.3	1	RES1	0.000	
33	 C48	10.996	51.534	93.971	C.3	1	RES1	0.000	
@<TRIPOS>BOND
1 1 24 ar
2 1 27 ar
3 10 11 1
4 2 11 2
5 4 11 1
6 4 12 1
7 12 13 1
8 12 30 1
9 3 13 2
10 6 13 1
11 6 14 1
12 14 15 1
13 5 15 1
14 15 16 1
15 16 17 1
16 6 17 1
17 17 18 1
18 7 18 2
19 8 18 1
20 8 19 1
21 19 20 1
22 20 21 ar
23 20 29 ar
24 21 22 ar
25 22 23 ar
26 23 24 1
27 23 28 ar
28 24 25 ar
29 9 25 ar
30 25 26 1
31 9 27 ar
32 28 29 ar
33 30 31 1
34 30 32 1
35 30 33 1
@<TRIPOS>SUBSTRUCTURE
1	RES1	1	GROUP	1 ****	RES
