# created with PyMOL 2.5.2
@<TRIPOS>MOLECULE
EGFR_4W9H_E3ligase
33 35 1                 
SMALL
USER_CHARGES
@<TRIPOS>ATOM
1	  S1	15.538	51.555	82.172	S.2	1	RES1	0.000	
2	  O3	12.393	56.343	94.695	O.2	1	RES1	0.000	
3	  O4	10.541	53.694	91.473	O.2	1	RES1	0.000	
4	  N5	11.051	54.571	94.040	N.pl3	1	RES1	0.000	
5	  O5	14.105	56.593	90.211	O.3	1	RES1	0.000	
6	  N6	12.718	54.013	90.872	N.pl3	1	RES1	0.000	
7	  O6	12.404	51.724	89.116	O.2	1	RES1	0.000	
8	  N7	11.147	52.977	87.682	N.pl3	1	RES1	0.000	
9	  N8	14.641	50.450	80.005	N.2	1	RES1	0.000	
10	 C22	10.101	56.438	95.298	C.3	1	RES1	0.000	
11	 C23	11.301	55.804	94.653	C.2	1	RES1	0.000	
12	 C24	12.079	53.838	93.339	C.3	1	RES1	0.000	
13	 C25	11.722	53.858	91.821	C.2	1	RES1	0.000	
14	 C26	14.103	54.333	91.161	C.3	1	RES1	0.000	
15	 C27	14.503	55.234	89.990	C.3	1	RES1	0.000	
16	 C28	13.746	54.629	88.812	C.3	1	RES1	0.000	
17	 C29	12.429	54.125	89.437	C.3	1	RES1	0.000	
18	 C30	12.004	52.833	88.776	C.2	1	RES1	0.000	
19	 C31	10.639	51.867	86.895	C.3	1	RES1	0.000	
20	 C32	11.460	51.649	85.620	C.2	1	RES1	0.000	
21	 C33	11.391	50.466	84.938	C.2	1	RES1	0.000	
22	 C34	12.177	50.253	83.781	C.2	1	RES1	0.000	
23	 C35	13.033	51.254	83.328	C.2	1	RES1	0.000	
24	 C36	13.891	51.023	82.129	C.2	1	RES1	0.000	
25	 C37	13.586	50.466	80.902	C.2	1	RES1	0.000	
26	 C38	12.320	49.849	80.472	C.3	1	RES1	0.000	
27	 C39	15.699	50.990	80.538	C.2	1	RES1	0.000	
28	 C40	13.120	52.461	84.049	C.2	1	RES1	0.000	
29	 C41	12.326	52.648	85.196	C.2	1	RES1	0.000	
30	 C42	12.261	52.388	93.893	C.3	1	RES1	0.000	
31	 C43	12.682	52.466	95.384	C.3	1	RES1	0.000	
32	 C44	13.329	51.577	93.122	C.3	1	RES1	0.000	
33	 C45	10.924	51.627	93.810	C.3	1	RES1	0.000	
@<TRIPOS>BOND
1 1 24 ar
2 1 27 ar
3 10 11 1
4 2 11 2
5 4 11 1
6 4 12 1
7 12 13 1
8 12 30 1
9 3 13 2
10 6 13 1
11 6 14 1
12 14 15 1
13 5 15 1
14 15 16 1
15 16 17 1
16 6 17 1
17 17 18 1
18 7 18 2
19 8 18 1
20 8 19 1
21 19 20 1
22 20 21 ar
23 20 29 ar
24 21 22 ar
25 22 23 ar
26 23 24 1
27 23 28 ar
28 24 25 ar
29 9 25 ar
30 25 26 1
31 9 27 ar
32 28 29 ar
33 30 31 1
34 30 32 1
35 30 33 1
@<TRIPOS>SUBSTRUCTURE
1	RES1	1	GROUP	1 ****	RES
