# created with PyMOL 2.5.2
@<TRIPOS>MOLECULE
EGFR_4W9H_E3ligase
33 35 1                 
SMALL
USER_CHARGES
@<TRIPOS>ATOM
1	  S1	15.450	51.786	82.158	S.2	1	RES1	0.000	
2	  O3	12.495	56.383	94.696	O.2	1	RES1	0.000	
3	  O4	10.368	53.811	91.597	O.2	1	RES1	0.000	
4	  N5	11.088	54.644	94.107	N.pl3	1	RES1	0.000	
5	  O5	15.462	55.622	89.500	O.3	1	RES1	0.000	
6	  N6	12.497	54.153	90.840	N.pl3	1	RES1	0.000	
7	  O6	12.471	51.870	89.275	O.2	1	RES1	0.000	
8	  N7	11.010	52.830	87.770	N.pl3	1	RES1	0.000	
9	  N8	14.605	50.645	80.010	N.2	1	RES1	0.000	
10	 C22	10.196	56.446	95.433	C.3	1	RES1	0.000	
11	 C23	11.384	55.837	94.715	C.2	1	RES1	0.000	
12	 C24	12.052	53.867	93.299	C.3	1	RES1	0.000	
13	 C25	11.554	53.959	91.846	C.2	1	RES1	0.000	
14	 C26	13.871	54.487	90.989	C.3	1	RES1	0.000	
15	 C27	14.454	54.605	89.575	C.3	1	RES1	0.000	
16	 C28	13.232	55.038	88.775	C.3	1	RES1	0.000	
17	 C29	12.081	54.260	89.426	C.3	1	RES1	0.000	
18	 C30	11.895	52.863	88.840	C.2	1	RES1	0.000	
19	 C31	10.703	51.629	87.040	C.3	1	RES1	0.000	
20	 C32	11.542	51.508	85.785	C.2	1	RES1	0.000	
21	 C33	11.591	50.271	85.125	C.2	1	RES1	0.000	
22	 C34	12.352	50.156	83.947	C.2	1	RES1	0.000	
23	 C35	13.058	51.236	83.392	C.2	1	RES1	0.000	
24	 C36	13.862	51.123	82.166	C.2	1	RES1	0.000	
25	 C37	13.584	50.571	80.953	C.2	1	RES1	0.000	
26	 C38	12.332	49.950	80.513	C.3	1	RES1	0.000	
27	 C39	15.653	51.243	80.551	C.2	1	RES1	0.000	
28	 C40	12.996	52.453	84.099	C.2	1	RES1	0.000	
29	 C41	12.241	52.576	85.260	C.2	1	RES1	0.000	
30	 C42	12.267	52.421	93.831	C.3	1	RES1	0.000	
31	 C43	12.926	52.486	95.213	C.3	1	RES1	0.000	
32	 C44	13.169	51.574	92.902	C.3	1	RES1	0.000	
33	 C45	10.927	51.708	94.005	C.3	1	RES1	0.000	
@<TRIPOS>BOND
1 1 24 ar
2 1 27 ar
3 10 11 1
4 2 11 2
5 4 11 1
6 4 12 1
7 12 13 1
8 12 30 1
9 3 13 2
10 6 13 1
11 6 14 1
12 14 15 1
13 5 15 1
14 15 16 1
15 16 17 1
16 6 17 1
17 17 18 1
18 7 18 2
19 8 18 1
20 8 19 1
21 19 20 1
22 20 21 ar
23 20 29 ar
24 21 22 ar
25 22 23 ar
26 23 24 1
27 23 28 ar
28 24 25 ar
29 9 25 ar
30 25 26 1
31 9 27 ar
32 28 29 ar
33 30 31 1
34 30 32 1
35 30 33 1
@<TRIPOS>SUBSTRUCTURE
1	RES1	1	GROUP	1 ****	RES
