# created with PyMOL 2.5.2
@<TRIPOS>MOLECULE
EGFR_4W9H_E3ligase
33 35 1                 
SMALL
USER_CHARGES
@<TRIPOS>ATOM
1	  S1	15.511	51.815	82.269	S.2	1	RES1	0.000	
2	  O3	12.444	56.449	94.617	O.2	1	RES1	0.000	
3	  O4	10.414	53.766	91.594	O.2	1	RES1	0.000	
4	  N5	11.095	54.669	94.078	N.pl3	1	RES1	0.000	
5	  O5	15.499	55.447	89.354	O.3	1	RES1	0.000	
6	  N6	12.526	54.112	90.817	N.pl3	1	RES1	0.000	
7	  O6	12.332	51.718	89.214	O.2	1	RES1	0.000	
8	  N7	10.928	52.788	87.734	N.pl3	1	RES1	0.000	
9	  N8	14.686	50.712	80.110	N.2	1	RES1	0.000	
10	 C24	10.170	56.490	95.351	C.3	1	RES1	0.000	
11	 C25	11.359	55.883	94.657	C.2	1	RES1	0.000	
12	 C26	12.108	53.907	93.311	C.3	1	RES1	0.000	
13	 C27	11.584	53.905	91.838	C.2	1	RES1	0.000	
14	 C28	13.923	54.467	90.945	C.3	1	RES1	0.000	
15	 C29	14.476	54.517	89.547	C.3	1	RES1	0.000	
16	 C30	13.244	54.832	88.699	C.3	1	RES1	0.000	
17	 C31	12.107	54.105	89.424	C.3	1	RES1	0.000	
18	 C32	11.843	52.748	88.783	C.2	1	RES1	0.000	
19	 C33	10.544	51.584	87.007	C.3	1	RES1	0.000	
20	 C34	11.397	51.496	85.739	C.2	1	RES1	0.000	
21	 C35	12.145	52.604	85.290	C.2	1	RES1	0.000	
22	 C36	12.935	52.501	84.166	C.2	1	RES1	0.000	
23	 C37	13.065	51.296	83.451	C.2	1	RES1	0.000	
24	 C38	13.909	51.213	82.250	C.2	1	RES1	0.000	
25	 C39	13.650	50.654	80.980	C.2	1	RES1	0.000	
26	 C40	12.344	50.060	80.534	C.3	1	RES1	0.000	
27	 C41	15.720	51.313	80.658	C.2	1	RES1	0.000	
28	 C42	12.311	50.207	83.898	C.2	1	RES1	0.000	
29	 C43	11.502	50.295	85.017	C.2	1	RES1	0.000	
30	 C44	12.364	52.492	93.891	C.3	1	RES1	0.000	
31	 C45	12.978	52.594	95.328	C.3	1	RES1	0.000	
32	 C46	13.277	51.607	93.042	C.3	1	RES1	0.000	
33	 C47	10.982	51.764	94.039	C.3	1	RES1	0.000	
@<TRIPOS>BOND
1 1 24 ar
2 1 27 ar
3 10 11 1
4 2 11 2
5 4 11 1
6 4 12 1
7 12 13 1
8 12 30 1
9 3 13 2
10 6 13 1
11 6 14 1
12 14 15 1
13 5 15 1
14 15 16 1
15 16 17 1
16 6 17 1
17 17 18 1
18 7 18 2
19 8 18 1
20 8 19 1
21 19 20 1
22 20 21 ar
23 20 29 ar
24 21 22 ar
25 22 23 ar
26 23 24 1
27 23 28 ar
28 24 25 ar
29 9 25 ar
30 25 26 1
31 9 27 ar
32 28 29 ar
33 30 31 1
34 30 32 1
35 30 33 1
@<TRIPOS>SUBSTRUCTURE
1	RES1	1	GROUP	1 ****	RES
