# created with PyMOL 2.5.2
@<TRIPOS>MOLECULE
EGFR_4W9H_E3ligase
33 35 1                 
SMALL
USER_CHARGES
@<TRIPOS>ATOM
1	  S1	15.512	51.429	82.177	S.2	1	RES1	0.000	
2	  O3	12.401	56.296	94.694	O.2	1	RES1	0.000	
3	  O4	10.640	53.675	91.435	O.2	1	RES1	0.000	
4	  N5	11.102	54.514	94.010	N.pl3	1	RES1	0.000	
5	  O5	14.126	56.704	90.065	O.3	1	RES1	0.000	
6	  N6	12.806	54.100	90.887	N.pl3	1	RES1	0.000	
7	  O6	12.329	51.861	89.240	O.2	1	RES1	0.000	
8	  N7	11.206	53.090	87.656	N.pl3	1	RES1	0.000	
9	  N8	14.502	50.330	80.058	N.2	1	RES1	0.000	
10	 C24	10.087	56.290	95.255	C.3	1	RES1	0.000	
11	 C25	11.328	55.713	94.630	C.2	1	RES1	0.000	
12	 C26	12.149	53.750	93.314	C.3	1	RES1	0.000	
13	 C27	11.779	53.826	91.813	C.2	1	RES1	0.000	
14	 C28	14.145	54.571	91.167	C.3	1	RES1	0.000	
15	 C29	14.577	55.384	89.941	C.3	1	RES1	0.000	
16	 C30	13.825	54.677	88.813	C.3	1	RES1	0.000	
17	 C31	12.501	54.239	89.433	C.3	1	RES1	0.000	
18	 C32	12.049	52.939	88.752	C.2	1	RES1	0.000	
19	 C33	10.653	51.979	86.929	C.3	1	RES1	0.000	
20	 C34	11.434	51.730	85.672	C.2	1	RES1	0.000	
21	 C35	11.366	50.536	84.985	C.2	1	RES1	0.000	
22	 C36	12.148	50.271	83.871	C.2	1	RES1	0.000	
23	 C37	13.010	51.250	83.390	C.2	1	RES1	0.000	
24	 C38	13.832	50.993	82.196	C.2	1	RES1	0.000	
25	 C39	13.502	50.410	80.969	C.2	1	RES1	0.000	
26	 C40	12.192	49.850	80.567	C.3	1	RES1	0.000	
27	 C41	15.614	50.837	80.553	C.2	1	RES1	0.000	
28	 C42	13.100	52.467	84.035	C.2	1	RES1	0.000	
29	 C43	12.306	52.724	85.169	C.2	1	RES1	0.000	
30	 C44	12.283	52.281	93.840	C.3	1	RES1	0.000	
31	 C45	12.759	52.271	95.294	C.3	1	RES1	0.000	
32	 C46	13.231	51.425	92.999	C.3	1	RES1	0.000	
33	 C47	10.874	51.594	93.813	C.3	1	RES1	0.000	
@<TRIPOS>BOND
1 1 24 ar
2 1 27 ar
3 10 11 1
4 2 11 2
5 4 11 1
6 4 12 1
7 12 13 1
8 12 30 1
9 3 13 2
10 6 13 1
11 6 14 1
12 14 15 1
13 5 15 1
14 15 16 1
15 16 17 1
16 6 17 1
17 17 18 1
18 7 18 2
19 8 18 1
20 8 19 1
21 19 20 1
22 20 21 ar
23 20 29 ar
24 21 22 ar
25 22 23 ar
26 23 24 1
27 23 28 ar
28 24 25 ar
29 9 25 ar
30 25 26 1
31 9 27 ar
32 28 29 ar
33 30 31 1
34 30 32 1
35 30 33 1
@<TRIPOS>SUBSTRUCTURE
1	RES1	1	GROUP	1 ****	RES
