# created with PyMOL 2.5.2
@<TRIPOS>MOLECULE
EGFR_4W9H_E3ligase
33 35 1                 
SMALL
USER_CHARGES
@<TRIPOS>ATOM
1	  S1	16.166	51.973	81.935	S.2	1	RES1	0.000	
2	  O3	12.526	56.687	94.472	O.2	1	RES1	0.000	
3	  O4	10.822	53.878	91.355	O.2	1	RES1	0.000	
4	  O5	14.384	56.999	90.218	O.3	1	RES1	0.000	
5	  O6	12.745	52.207	88.905	O.2	1	RES1	0.000	
6	  N7	11.361	54.796	93.843	N.pl3	1	RES1	0.000	
7	  N8	12.942	54.432	90.685	N.pl3	1	RES1	0.000	
8	  N9	11.671	53.493	87.349	N.pl3	1	RES1	0.000	
9	 N10	15.289	50.863	79.762	N.2	1	RES1	0.000	
10	 C29	10.249	56.509	95.155	C.3	1	RES1	0.000	
11	 C30	11.487	56.037	94.463	C.2	1	RES1	0.000	
12	 C31	12.420	54.090	93.129	C.3	1	RES1	0.000	
13	 C32	11.978	54.146	91.646	C.2	1	RES1	0.000	
14	 C33	14.288	54.731	91.096	C.3	1	RES1	0.000	
15	 C34	14.791	55.658	90.004	C.3	1	RES1	0.000	
16	 C35	14.137	55.122	88.758	C.3	1	RES1	0.000	
17	 C36	12.769	54.585	89.246	C.3	1	RES1	0.000	
18	 C37	12.437	53.329	88.474	C.2	1	RES1	0.000	
19	 C38	11.188	52.392	86.560	C.3	1	RES1	0.000	
20	 C39	12.016	52.173	85.316	C.2	1	RES1	0.000	
21	 C40	11.986	50.971	84.614	C.2	1	RES1	0.000	
22	 C41	12.781	50.773	83.489	C.2	1	RES1	0.000	
23	 C42	13.631	51.795	83.024	C.2	1	RES1	0.000	
24	 C43	14.490	51.536	81.863	C.2	1	RES1	0.000	
25	 C44	14.235	50.922	80.648	C.2	1	RES1	0.000	
26	 C45	12.941	50.372	80.150	C.3	1	RES1	0.000	
27	 C46	16.374	51.388	80.339	C.2	1	RES1	0.000	
28	 C47	13.684	52.972	83.733	C.2	1	RES1	0.000	
29	 C48	12.902	53.167	84.868	C.2	1	RES1	0.000	
30	 C49	12.657	52.664	93.713	C.3	1	RES1	0.000	
31	 C50	13.651	51.914	92.818	C.3	1	RES1	0.000	
32	 C51	13.263	52.743	95.132	C.3	1	RES1	0.000	
33	 C52	11.371	51.812	93.776	C.3	1	RES1	0.000	
@<TRIPOS>BOND
1 1 24 ar
2 1 27 ar
3 2 11 2
4 9 25 ar
5 9 27 ar
6 10 11 1
7 6 11 1
8 6 12 1
9 12 13 1
10 12 30 1
11 3 13 2
12 7 13 1
13 7 14 1
14 14 15 1
15 4 15 1
16 15 16 1
17 16 17 1
18 7 17 1
19 17 18 1
20 5 18 2
21 8 18 1
22 8 19 1
23 19 20 1
24 20 21 ar
25 20 29 ar
26 21 22 ar
27 22 23 ar
28 23 24 1
29 23 28 ar
30 24 25 ar
31 25 26 1
32 28 29 ar
33 30 31 1
34 30 32 1
35 30 33 1
@<TRIPOS>SUBSTRUCTURE
1	RES1	1	GROUP	1 ****	RES
