# created with PyMOL 2.5.2
@<TRIPOS>MOLECULE
EGFR_4W9H_E3ligase
33 35 1                 
SMALL
USER_CHARGES
@<TRIPOS>ATOM
1	  S1	15.541	51.278	82.025	S.2	1	RES1	0.000	
2	  O3	12.422	56.277	94.682	O.2	1	RES1	0.000	
3	  O4	10.604	53.639	91.458	O.2	1	RES1	0.000	
4	  O5	14.053	56.750	90.126	O.3	1	RES1	0.000	
5	  O6	12.290	51.824	89.323	O.2	1	RES1	0.000	
6	  N7	11.076	54.521	94.035	N.pl3	1	RES1	0.000	
7	  N8	12.768	54.110	90.891	N.pl3	1	RES1	0.000	
8	  N9	11.249	53.057	87.695	N.pl3	1	RES1	0.000	
9	 N10	14.411	50.347	79.938	N.2	1	RES1	0.000	
10	 C29	10.102	56.349	95.258	C.3	1	RES1	0.000	
11	 C30	11.331	55.762	94.655	C.2	1	RES1	0.000	
12	 C31	12.145	53.750	93.334	C.3	1	RES1	0.000	
13	 C32	11.739	53.842	91.858	C.2	1	RES1	0.000	
14	 C33	14.122	54.579	91.190	C.3	1	RES1	0.000	
15	 C34	14.512	55.391	89.957	C.3	1	RES1	0.000	
16	 C35	13.745	54.727	88.820	C.3	1	RES1	0.000	
17	 C36	12.455	54.230	89.483	C.3	1	RES1	0.000	
18	 C37	12.029	52.894	88.802	C.2	1	RES1	0.000	
19	 C38	10.740	51.969	86.893	C.3	1	RES1	0.000	
20	 C39	11.595	51.700	85.691	C.2	1	RES1	0.000	
21	 C40	12.487	52.640	85.219	C.2	1	RES1	0.000	
22	 C41	13.239	52.407	84.052	C.2	1	RES1	0.000	
23	 C42	13.084	51.232	83.341	C.2	1	RES1	0.000	
24	 C43	13.857	50.988	82.116	C.2	1	RES1	0.000	
25	 C44	13.435	50.469	80.893	C.2	1	RES1	0.000	
26	 C45	12.086	50.018	80.490	C.3	1	RES1	0.000	
27	 C46	15.576	50.770	80.411	C.2	1	RES1	0.000	
28	 C47	12.170	50.259	83.822	C.2	1	RES1	0.000	
29	 C48	11.425	50.521	84.965	C.2	1	RES1	0.000	
30	 C49	12.263	52.299	93.887	C.3	1	RES1	0.000	
31	 C50	13.236	51.411	93.096	C.3	1	RES1	0.000	
32	 C51	12.718	52.373	95.337	C.3	1	RES1	0.000	
33	 C52	10.862	51.614	93.865	C.3	1	RES1	0.000	
@<TRIPOS>BOND
1 1 24 ar
2 1 27 ar
3 2 11 2
4 9 25 ar
5 9 27 ar
6 10 11 1
7 6 11 1
8 6 12 1
9 12 13 1
10 12 30 1
11 3 13 2
12 7 13 1
13 7 14 1
14 14 15 1
15 4 15 1
16 15 16 1
17 16 17 1
18 7 17 1
19 17 18 1
20 5 18 2
21 8 18 1
22 8 19 1
23 19 20 1
24 20 21 ar
25 20 29 ar
26 21 22 ar
27 22 23 ar
28 23 24 1
29 23 28 ar
30 24 25 ar
31 25 26 1
32 28 29 ar
33 30 31 1
34 30 32 1
35 30 33 1
@<TRIPOS>SUBSTRUCTURE
1	RES1	1	GROUP	1 ****	RES
