# created with PyMOL 2.5.2
@<TRIPOS>MOLECULE
EGFR_5NVV_E3ligase
34 36 1                 
SMALL
USER_CHARGES
@<TRIPOS>ATOM
1	  S1	15.945	51.682	82.318	S.2	1	RES1	0.000	
2	  O5	10.452	57.511	96.133	O.3	1	RES1	0.000	
3	  O6	12.545	56.390	94.788	O.2	1	RES1	0.000	
4	  O7	10.830	53.721	91.735	O.2	1	RES1	0.000	
5	  N8	11.397	54.472	94.277	N.pl3	1	RES1	0.000	
6	  O8	14.456	56.660	90.520	O.3	1	RES1	0.000	
7	  N9	12.976	54.139	91.036	N.pl3	1	RES1	0.000	
8	  O9	12.807	51.929	89.238	O.2	1	RES1	0.000	
9	 N10	11.506	53.213	87.819	N.pl3	1	RES1	0.000	
10	 N11	15.019	50.454	80.238	N.2	1	RES1	0.000	
11	 C35	10.290	56.217	95.543	C.3	1	RES1	0.000	
12	 C36	11.535	55.700	94.840	C.2	1	RES1	0.000	
13	 C37	12.470	53.792	93.502	C.3	1	RES1	0.000	
14	 C38	12.019	53.864	92.019	C.2	1	RES1	0.000	
15	 C39	14.348	54.425	91.376	C.3	1	RES1	0.000	
16	 C40	14.831	55.308	90.249	C.3	1	RES1	0.000	
17	 C41	14.098	54.824	89.013	C.3	1	RES1	0.000	
18	 C42	12.742	54.323	89.601	C.3	1	RES1	0.000	
19	 C43	12.349	53.004	88.893	C.2	1	RES1	0.000	
20	 C44	11.002	52.071	87.036	C.3	1	RES1	0.000	
21	 C45	11.870	51.824	85.831	C.2	1	RES1	0.000	
22	 C46	11.841	50.584	85.153	C.2	1	RES1	0.000	
23	 C47	12.645	50.391	84.061	C.2	1	RES1	0.000	
24	 C48	13.497	51.362	83.575	C.2	1	RES1	0.000	
25	 C49	14.302	51.141	82.363	C.2	1	RES1	0.000	
26	 C50	13.984	50.531	81.134	C.2	1	RES1	0.000	
27	 C51	12.669	49.964	80.748	C.3	1	RES1	0.000	
28	 C52	16.089	51.023	80.750	C.2	1	RES1	0.000	
29	 C53	13.513	52.612	84.233	C.2	1	RES1	0.000	
30	 C54	12.708	52.837	85.349	C.2	1	RES1	0.000	
31	 C55	12.757	52.369	93.992	C.3	1	RES1	0.000	
32	 C56	13.447	52.427	95.395	C.3	1	RES1	0.000	
33	 C57	13.738	51.663	93.034	C.3	1	RES1	0.000	
34	 C58	11.503	51.494	94.108	C.3	1	RES1	0.000	
@<TRIPOS>BOND
1 1 25 ar
2 1 28 ar
3 9 19 1
4 9 20 1
5 10 26 ar
6 10 28 ar
7 2 11 1
8 11 12 1
9 3 12 2
10 5 12 1
11 5 13 1
12 13 14 1
13 13 31 1
14 4 14 2
15 7 14 1
16 7 15 1
17 15 16 1
18 6 16 1
19 16 17 1
20 17 18 1
21 7 18 1
22 18 19 1
23 8 19 2
24 20 21 1
25 21 22 ar
26 21 30 ar
27 22 23 ar
28 23 24 ar
29 24 25 1
30 24 29 ar
31 25 26 ar
32 26 27 1
33 29 30 ar
34 31 32 1
35 31 33 1
36 31 34 1
@<TRIPOS>SUBSTRUCTURE
1	RES1	1	GROUP	1 ****	RES
