# created with PyMOL 2.5.2
@<TRIPOS>MOLECULE
EGFR_5NVV_E3ligase
34 36 1                 
SMALL
USER_CHARGES
@<TRIPOS>ATOM
1	  S1	15.862	51.673	82.405	S.2	1	RES1	0.000	
2	  O5	10.453	57.452	96.071	O.3	1	RES1	0.000	
3	  O6	12.621	56.280	94.833	O.2	1	RES1	0.000	
4	  O7	10.996	53.663	91.622	O.2	1	RES1	0.000	
5	  N8	11.446	54.394	94.200	N.pl3	1	RES1	0.000	
6	  O8	14.427	56.847	90.339	O.3	1	RES1	0.000	
7	  N9	13.157	54.180	91.056	N.pl3	1	RES1	0.000	
8	  O9	12.744	51.954	89.339	O.2	1	RES1	0.000	
9	 N10	11.524	53.217	87.895	N.pl3	1	RES1	0.000	
10	 N11	15.062	50.460	80.292	N.2	1	RES1	0.000	
11	 C35	10.307	56.155	95.463	C.3	1	RES1	0.000	
12	 C36	11.580	55.663	94.807	C.2	1	RES1	0.000	
13	 C37	12.527	53.756	93.487	C.3	1	RES1	0.000	
14	 C38	12.161	53.856	91.964	C.2	1	RES1	0.000	
15	 C39	14.503	54.634	91.341	C.3	1	RES1	0.000	
16	 C40	14.863	55.494	90.130	C.3	1	RES1	0.000	
17	 C41	14.131	54.850	88.977	C.3	1	RES1	0.000	
18	 C42	12.827	54.339	89.641	C.3	1	RES1	0.000	
19	 C43	12.410	53.044	88.922	C.2	1	RES1	0.000	
20	 C44	10.993	52.094	87.149	C.3	1	RES1	0.000	
21	 C45	11.777	51.868	85.845	C.2	1	RES1	0.000	
22	 C46	11.715	50.641	85.185	C.2	1	RES1	0.000	
23	 C47	12.468	50.410	84.023	C.2	1	RES1	0.000	
24	 C48	13.372	51.354	83.564	C.2	1	RES1	0.000	
25	 C49	14.241	51.107	82.390	C.2	1	RES1	0.000	
26	 C50	13.972	50.516	81.186	C.2	1	RES1	0.000	
27	 C51	12.662	49.938	80.715	C.3	1	RES1	0.000	
28	 C52	16.086	50.997	80.855	C.2	1	RES1	0.000	
29	 C53	13.468	52.585	84.271	C.2	1	RES1	0.000	
30	 C54	12.692	52.811	85.395	C.2	1	RES1	0.000	
31	 C55	12.783	52.301	93.970	C.3	1	RES1	0.000	
32	 C56	13.417	52.270	95.363	C.3	1	RES1	0.000	
33	 C57	13.667	51.487	93.021	C.3	1	RES1	0.000	
34	 C58	11.438	51.560	94.082	C.3	1	RES1	0.000	
@<TRIPOS>BOND
1 1 25 ar
2 1 28 ar
3 9 19 1
4 9 20 1
5 10 26 ar
6 10 28 ar
7 2 11 1
8 11 12 1
9 3 12 2
10 5 12 1
11 5 13 1
12 13 14 1
13 13 31 1
14 4 14 2
15 7 14 1
16 7 15 1
17 15 16 1
18 6 16 1
19 16 17 1
20 17 18 1
21 7 18 1
22 18 19 1
23 8 19 2
24 20 21 1
25 21 22 ar
26 21 30 ar
27 22 23 ar
28 23 24 ar
29 24 25 1
30 24 29 ar
31 25 26 ar
32 26 27 1
33 29 30 ar
34 31 32 1
35 31 33 1
36 31 34 1
@<TRIPOS>SUBSTRUCTURE
1	RES1	1	GROUP	1 ****	RES
