# created with PyMOL 2.5.2
@<TRIPOS>MOLECULE
EGFR_4W9H_E3ligase
33 35 1                 
SMALL
USER_CHARGES
@<TRIPOS>ATOM
1	  S1	15.558	51.366	81.970	S.2	1	RES1	0.000	
2	  O4	12.352	56.358	94.677	O.2	1	RES1	0.000	
3	  O5	10.446	53.683	91.594	O.2	1	RES1	0.000	
4	  O6	13.984	56.684	90.341	O.3	1	RES1	0.000	
5	  O7	12.289	51.882	89.176	O.2	1	RES1	0.000	
6	  N8	11.091	54.508	94.109	N.pl3	1	RES1	0.000	
7	  N9	12.591	54.072	90.877	N.pl3	1	RES1	0.000	
8	 N10	11.253	53.137	87.551	N.pl3	1	RES1	0.000	
9	 N11	14.528	50.208	79.909	N.2	1	RES1	0.000	
10	 C36	10.103	56.237	95.418	C.3	1	RES1	0.000	
11	 C37	11.310	55.730	94.705	C.2	1	RES1	0.000	
12	 C38	12.101	53.778	93.339	C.3	1	RES1	0.000	
13	 C39	11.628	53.825	91.885	C.2	1	RES1	0.000	
14	 C40	13.957	54.423	91.251	C.3	1	RES1	0.000	
15	 C41	14.426	55.332	90.129	C.3	1	RES1	0.000	
16	 C42	13.725	54.776	88.919	C.3	1	RES1	0.000	
17	 C43	12.409	54.269	89.430	C.3	1	RES1	0.000	
18	 C44	12.029	52.986	88.678	C.2	1	RES1	0.000	
19	 C45	10.726	52.029	86.799	C.3	1	RES1	0.000	
20	 C46	11.551	51.738	85.553	C.2	1	RES1	0.000	
21	 C47	12.425	52.698	85.056	C.2	1	RES1	0.000	
22	 C48	13.174	52.434	83.917	C.2	1	RES1	0.000	
23	 C49	13.125	51.193	83.243	C.2	1	RES1	0.000	
24	 C50	13.899	50.916	82.059	C.2	1	RES1	0.000	
25	 C51	13.536	50.312	80.868	C.2	1	RES1	0.000	
26	 C52	12.173	49.824	80.456	C.3	1	RES1	0.000	
27	 C53	15.646	50.704	80.388	C.2	1	RES1	0.000	
28	 C54	12.212	50.252	83.776	C.2	1	RES1	0.000	
29	 C55	11.451	50.511	84.887	C.2	1	RES1	0.000	
30	 C56	12.334	52.338	93.873	C.3	1	RES1	0.000	
31	 C57	13.332	51.568	92.999	C.3	1	RES1	0.000	
32	 C58	12.938	52.393	95.302	C.3	1	RES1	0.000	
33	 C59	11.044	51.519	93.967	C.3	1	RES1	0.000	
@<TRIPOS>BOND
1 1 24 ar
2 1 27 ar
3 8 18 1
4 8 19 1
5 9 25 ar
6 9 27 ar
7 10 11 1
8 2 11 2
9 6 11 1
10 6 12 1
11 12 13 1
12 12 30 1
13 3 13 2
14 7 13 1
15 7 14 1
16 14 15 1
17 4 15 1
18 15 16 1
19 16 17 1
20 7 17 1
21 17 18 1
22 5 18 2
23 19 20 1
24 20 21 ar
25 20 29 ar
26 21 22 ar
27 22 23 ar
28 23 24 1
29 23 28 ar
30 24 25 ar
31 25 26 1
32 28 29 ar
33 30 31 1
34 30 32 1
35 30 33 1
@<TRIPOS>SUBSTRUCTURE
1	RES1	1	GROUP	1 ****	RES
