# created with PyMOL 2.5.2
@<TRIPOS>MOLECULE
BRD4_6H0G_E3ligase
20 22 1                 
SMALL
USER_CHARGES
@<TRIPOS>ATOM
1	  N3	1.969	54.473	-85.608	N.pl3	1	RES1	0.000	
2	  N4	1.709	51.801	-82.098	N.2	1	RES1	0.000	
3	  O4	2.770	53.785	-82.852	O.2	1	RES1	0.000	
4	  N5	2.001	50.082	-78.852	N.pl3	1	RES1	0.000	
5	  O5	3.715	49.667	-77.430	O.2	1	RES1	0.000	
6	  O6	0.181	50.457	-80.170	O.2	1	RES1	0.000	
7	  O7	0.450	49.813	-82.259	O.2	1	RES1	0.000	
8	 C24	1.336	53.199	-85.437	C.2	1	RES1	0.000	
9	 C25	0.532	52.664	-86.480	C.2	1	RES1	0.000	
10	 C26	-0.167	51.469	-86.282	C.2	1	RES1	0.000	
11	 C27	-0.083	50.772	-85.066	C.2	1	RES1	0.000	
12	 C28	0.667	51.324	-84.065	C.2	1	RES1	0.000	
13	 C29	1.354	52.509	-84.238	C.2	1	RES1	0.000	
14	 C30	2.046	52.792	-83.013	C.2	1	RES1	0.000	
15	 C31	2.220	51.656	-80.735	C.3	1	RES1	0.000	
16	 C32	3.700	51.227	-80.672	C.3	1	RES1	0.000	
17	 C33	4.150	51.158	-79.225	C.3	1	RES1	0.000	
18	 C34	3.285	50.226	-78.436	C.2	1	RES1	0.000	
19	 C35	1.382	50.665	-79.936	C.2	1	RES1	0.000	
20	 C36	0.906	50.853	-82.711	C.2	1	RES1	0.000	
@<TRIPOS>BOND
1 1 8 1
2 8 9 ar
3 8 13 ar
4 9 10 ar
5 10 11 ar
6 11 12 ar
7 12 13 ar
8 12 20 ar
9 13 14 ar
10 2 14 ar
11 3 14 2
12 2 15 1
13 15 16 1
14 15 19 1
15 16 17 1
16 17 18 1
17 4 18 1
18 5 18 2
19 4 19 1
20 6 19 2
21 2 20 ar
22 7 20 2
@<TRIPOS>SUBSTRUCTURE
1	RES1	1	GROUP	1 ****	RES
