# created with PyMOL 2.5.2
@<TRIPOS>MOLECULE
EGFR_4W9H_E3ligase
33 35 1                 
SMALL
USER_CHARGES
@<TRIPOS>ATOM
1	  S1	15.587	51.405	82.042	S.2	1	RES1	0.000	
2	  O4	12.327	56.385	94.680	O.2	1	RES1	0.000	
3	  O5	10.415	53.778	91.607	O.2	1	RES1	0.000	
4	  O6	14.082	56.609	90.368	O.3	1	RES1	0.000	
5	  O7	12.309	51.877	89.196	O.2	1	RES1	0.000	
6	  N8	11.071	54.534	94.117	N.pl3	1	RES1	0.000	
7	  N9	12.576	54.067	90.883	N.pl3	1	RES1	0.000	
8	 N10	11.241	53.108	87.576	N.pl3	1	RES1	0.000	
9	 N11	14.590	50.223	79.969	N.2	1	RES1	0.000	
10	 C36	10.078	56.296	95.397	C.3	1	RES1	0.000	
11	 C37	11.282	55.750	94.721	C.2	1	RES1	0.000	
12	 C38	12.074	53.810	93.349	C.3	1	RES1	0.000	
13	 C39	11.603	53.854	91.879	C.2	1	RES1	0.000	
14	 C40	13.948	54.355	91.277	C.3	1	RES1	0.000	
15	 C41	14.483	55.235	90.142	C.3	1	RES1	0.000	
16	 C42	13.760	54.682	88.905	C.3	1	RES1	0.000	
17	 C43	12.405	54.257	89.429	C.3	1	RES1	0.000	
18	 C44	12.012	52.947	88.692	C.2	1	RES1	0.000	
19	 C45	10.723	51.970	86.819	C.3	1	RES1	0.000	
20	 C46	11.519	51.715	85.577	C.2	1	RES1	0.000	
21	 C47	12.365	52.710	85.065	C.2	1	RES1	0.000	
22	 C48	13.125	52.484	83.933	C.2	1	RES1	0.000	
23	 C49	13.086	51.264	83.264	C.2	1	RES1	0.000	
24	 C50	13.906	50.990	82.085	C.2	1	RES1	0.000	
25	 C51	13.566	50.391	80.887	C.2	1	RES1	0.000	
26	 C52	12.213	49.893	80.471	C.3	1	RES1	0.000	
27	 C53	15.691	50.737	80.492	C.2	1	RES1	0.000	
28	 C54	12.222	50.225	83.803	C.2	1	RES1	0.000	
29	 C55	11.476	50.497	84.920	C.2	1	RES1	0.000	
30	 C56	12.335	52.353	93.879	C.3	1	RES1	0.000	
31	 C57	13.366	51.649	92.988	C.3	1	RES1	0.000	
32	 C58	12.881	52.419	95.286	C.3	1	RES1	0.000	
33	 C59	11.047	51.513	93.889	C.3	1	RES1	0.000	
@<TRIPOS>BOND
1 1 24 ar
2 1 27 ar
3 8 18 1
4 8 19 1
5 9 25 ar
6 9 27 ar
7 10 11 1
8 2 11 2
9 6 11 1
10 6 12 1
11 12 13 1
12 12 30 1
13 3 13 2
14 7 13 1
15 7 14 1
16 14 15 1
17 4 15 1
18 15 16 1
19 16 17 1
20 7 17 1
21 17 18 1
22 5 18 2
23 19 20 1
24 20 21 ar
25 20 29 ar
26 21 22 ar
27 22 23 ar
28 23 24 1
29 23 28 ar
30 24 25 ar
31 25 26 1
32 28 29 ar
33 30 31 1
34 30 32 1
35 30 33 1
@<TRIPOS>SUBSTRUCTURE
1	RES1	1	GROUP	1 ****	RES
