# created with PyMOL 2.5.2
@<TRIPOS>MOLECULE
EGFR_4W9H_E3ligase
33 35 1                 
SMALL
USER_CHARGES
@<TRIPOS>ATOM
1	  S1	15.523	51.517	82.115	S.2	1	RES1	0.000	
2	  O3	12.319	56.308	94.720	O.2	1	RES1	0.000	
3	  O4	10.558	53.694	91.418	O.2	1	RES1	0.000	
4	  O5	14.143	56.623	90.209	O.3	1	RES1	0.000	
5	  O6	12.306	51.774	89.256	O.2	1	RES1	0.000	
6	  N8	11.017	54.552	93.981	N.pl3	1	RES1	0.000	
7	  N9	12.742	54.036	90.871	N.pl3	1	RES1	0.000	
8	 N10	11.188	53.047	87.690	N.pl3	1	RES1	0.000	
9	 N11	14.550	50.355	80.031	N.2	1	RES1	0.000	
10	 C34	9.988	56.339	95.200	C.3	1	RES1	0.000	
11	 C35	11.243	55.757	94.621	C.2	1	RES1	0.000	
12	 C36	12.067	53.792	93.279	C.3	1	RES1	0.000	
13	 C37	11.696	53.857	91.791	C.2	1	RES1	0.000	
14	 C38	14.110	54.352	91.173	C.3	1	RES1	0.000	
15	 C39	14.562	55.230	90.009	C.3	1	RES1	0.000	
16	 C40	13.816	54.674	88.837	C.3	1	RES1	0.000	
17	 C41	12.483	54.189	89.426	C.3	1	RES1	0.000	
18	 C42	12.033	52.884	88.796	C.2	1	RES1	0.000	
19	 C43	10.676	51.935	86.932	C.3	1	RES1	0.000	
20	 C44	11.515	51.701	85.673	C.2	1	RES1	0.000	
21	 C45	12.365	52.694	85.198	C.2	1	RES1	0.000	
22	 C46	13.111	52.488	84.053	C.2	1	RES1	0.000	
23	 C47	13.102	51.267	83.380	C.2	1	RES1	0.000	
24	 C48	13.858	51.042	82.171	C.2	1	RES1	0.000	
25	 C49	13.553	50.447	80.944	C.2	1	RES1	0.000	
26	 C50	12.211	49.891	80.548	C.3	1	RES1	0.000	
27	 C51	15.651	50.898	80.525	C.2	1	RES1	0.000	
28	 C52	12.219	50.252	83.858	C.2	1	RES1	0.000	
29	 C53	11.448	50.481	85.005	C.2	1	RES1	0.000	
30	 C54	12.254	52.374	93.820	C.3	1	RES1	0.000	
31	 C55	13.361	51.630	93.009	C.3	1	RES1	0.000	
32	 C56	12.728	52.416	95.326	C.3	1	RES1	0.000	
33	 C57	10.974	51.519	93.780	C.3	1	RES1	0.000	
@<TRIPOS>BOND
1 1 24 ar
2 1 27 ar
3 2 11 2
4 8 18 1
5 8 19 1
6 9 25 ar
7 9 27 ar
8 10 11 1
9 6 11 1
10 6 12 1
11 12 13 1
12 12 30 1
13 3 13 2
14 7 13 1
15 7 14 1
16 14 15 1
17 4 15 1
18 15 16 1
19 16 17 1
20 7 17 1
21 17 18 1
22 5 18 2
23 19 20 1
24 20 21 ar
25 20 29 ar
26 21 22 ar
27 22 23 ar
28 23 24 1
29 23 28 ar
30 24 25 ar
31 25 26 1
32 28 29 ar
33 30 31 1
34 30 32 1
35 30 33 1
@<TRIPOS>SUBSTRUCTURE
1	RES1	1	GROUP	1 ****	RES
