# created with PyMOL 2.5.2
@<TRIPOS>MOLECULE
EGFR_4W9H_E3ligase
33 35 1                 
SMALL
USER_CHARGES
@<TRIPOS>ATOM
1	  S1	15.480	51.536	82.063	S.2	1	RES1	0.000	
2	  O3	12.343	56.290	94.654	O.2	1	RES1	0.000	
3	  O4	10.540	53.705	91.419	O.2	1	RES1	0.000	
4	  O5	14.178	56.681	90.338	O.3	1	RES1	0.000	
5	  O6	12.434	51.835	89.273	O.2	1	RES1	0.000	
6	  N8	11.011	54.514	93.991	N.pl3	1	RES1	0.000	
7	  N9	12.734	54.067	90.875	N.pl3	1	RES1	0.000	
8	 N10	11.233	53.082	87.726	N.pl3	1	RES1	0.000	
9	 N11	14.545	50.351	79.982	N.2	1	RES1	0.000	
10	 C34	10.012	56.342	95.263	C.3	1	RES1	0.000	
11	 C35	11.267	55.735	94.629	C.2	1	RES1	0.000	
12	 C36	12.052	53.806	93.275	C.3	1	RES1	0.000	
13	 C37	11.688	53.865	91.786	C.2	1	RES1	0.000	
14	 C38	14.110	54.393	91.179	C.3	1	RES1	0.000	
15	 C39	14.551	55.322	90.041	C.3	1	RES1	0.000	
16	 C40	13.758	54.806	88.860	C.3	1	RES1	0.000	
17	 C41	12.463	54.259	89.453	C.3	1	RES1	0.000	
18	 C42	12.069	52.927	88.803	C.2	1	RES1	0.000	
19	 C43	10.753	51.915	86.950	C.3	1	RES1	0.000	
20	 C44	11.556	51.678	85.728	C.2	1	RES1	0.000	
21	 C45	11.509	50.428	85.044	C.2	1	RES1	0.000	
22	 C46	12.246	50.204	83.897	C.2	1	RES1	0.000	
23	 C47	13.051	51.213	83.352	C.2	1	RES1	0.000	
24	 C48	13.856	50.986	82.125	C.2	1	RES1	0.000	
25	 C49	13.507	50.403	80.904	C.2	1	RES1	0.000	
26	 C50	12.216	49.861	80.484	C.3	1	RES1	0.000	
27	 C51	15.606	50.910	80.472	C.2	1	RES1	0.000	
28	 C52	13.146	52.443	84.044	C.2	1	RES1	0.000	
29	 C53	12.388	52.652	85.181	C.2	1	RES1	0.000	
30	 C54	12.230	52.324	93.841	C.3	1	RES1	0.000	
31	 C55	13.280	51.516	92.995	C.3	1	RES1	0.000	
32	 C56	12.676	52.359	95.268	C.3	1	RES1	0.000	
33	 C57	10.882	51.595	93.728	C.3	1	RES1	0.000	
@<TRIPOS>BOND
1 1 24 ar
2 1 27 ar
3 2 11 2
4 8 18 1
5 8 19 1
6 9 25 ar
7 9 27 ar
8 10 11 1
9 6 11 1
10 6 12 1
11 12 13 1
12 12 30 1
13 3 13 2
14 7 13 1
15 7 14 1
16 14 15 1
17 4 15 1
18 15 16 1
19 16 17 1
20 7 17 1
21 17 18 1
22 5 18 2
23 19 20 1
24 20 21 ar
25 20 29 ar
26 21 22 ar
27 22 23 ar
28 23 24 1
29 23 28 ar
30 24 25 ar
31 25 26 1
32 28 29 ar
33 30 31 1
34 30 32 1
35 30 33 1
@<TRIPOS>SUBSTRUCTURE
1	RES1	1	GROUP	1 ****	RES
