# created with PyMOL 2.5.2
@<TRIPOS>MOLECULE
EGFR_5NVV_E3ligase
34 36 1                 
SMALL
USER_CHARGES
@<TRIPOS>ATOM
1	  S1	15.947	51.722	82.353	S.2	1	RES1	0.000	
2	  O5	10.522	57.476	96.137	O.3	1	RES1	0.000	
3	  O6	12.618	56.372	94.739	O.2	1	RES1	0.000	
4	  O7	10.904	53.695	91.636	O.2	1	RES1	0.000	
5	  O8	14.347	56.759	90.436	O.3	1	RES1	0.000	
6	  N9	11.408	54.472	94.191	N.pl3	1	RES1	0.000	
7	  O9	12.753	51.859	89.390	O.2	1	RES1	0.000	
8	 N10	13.074	54.095	91.043	N.pl3	1	RES1	0.000	
9	 N11	11.481	53.081	87.891	N.pl3	1	RES1	0.000	
10	 N12	15.033	50.608	80.249	N.2	1	RES1	0.000	
11	 C34	10.335	56.261	95.441	C.3	1	RES1	0.000	
12	 C35	11.567	55.721	94.779	C.2	1	RES1	0.000	
13	 C36	12.457	53.768	93.449	C.3	1	RES1	0.000	
14	 C37	12.060	53.863	91.989	C.2	1	RES1	0.000	
15	 C38	14.431	54.500	91.344	C.3	1	RES1	0.000	
16	 C39	14.826	55.443	90.171	C.3	1	RES1	0.000	
17	 C40	14.067	54.848	89.011	C.3	1	RES1	0.000	
18	 C41	12.789	54.301	89.604	C.3	1	RES1	0.000	
19	 C42	12.385	52.936	88.952	C.2	1	RES1	0.000	
20	 C43	11.019	51.961	87.121	C.3	1	RES1	0.000	
21	 C44	11.882	51.769	85.897	C.2	1	RES1	0.000	
22	 C45	12.731	52.776	85.403	C.2	1	RES1	0.000	
23	 C46	13.523	52.559	84.297	C.2	1	RES1	0.000	
24	 C47	13.482	51.360	83.593	C.2	1	RES1	0.000	
25	 C48	14.307	51.176	82.387	C.2	1	RES1	0.000	
26	 C49	14.007	50.612	81.157	C.2	1	RES1	0.000	
27	 C50	12.742	49.942	80.753	C.3	1	RES1	0.000	
28	 C51	16.097	51.169	80.731	C.2	1	RES1	0.000	
29	 C52	12.629	50.348	84.080	C.2	1	RES1	0.000	
30	 C53	11.843	50.534	85.207	C.2	1	RES1	0.000	
31	 C54	12.693	52.312	93.980	C.3	1	RES1	0.000	
32	 C55	13.289	52.370	95.382	C.3	1	RES1	0.000	
33	 C56	13.690	51.605	93.068	C.3	1	RES1	0.000	
34	 C57	11.390	51.502	94.039	C.3	1	RES1	0.000	
@<TRIPOS>BOND
1 1 25 ar
2 1 28 ar
3 8 14 1
4 8 15 1
5 8 18 1
6 9 19 1
7 9 20 1
8 10 26 ar
9 10 28 ar
10 2 11 1
11 11 12 1
12 3 12 2
13 6 12 1
14 6 13 1
15 13 14 1
16 13 31 1
17 4 14 2
18 15 16 1
19 5 16 1
20 16 17 1
21 17 18 1
22 18 19 1
23 7 19 2
24 20 21 1
25 21 22 ar
26 21 30 ar
27 22 23 ar
28 23 24 ar
29 24 25 1
30 24 29 ar
31 25 26 ar
32 26 27 1
33 29 30 ar
34 31 32 1
35 31 33 1
36 31 34 1
@<TRIPOS>SUBSTRUCTURE
1	RES1	1	GROUP	1 ****	RES
