# created with PyMOL 2.5.2
@<TRIPOS>MOLECULE
EGFR_5NVV_E3ligase
34 36 1                 
SMALL
USER_CHARGES
@<TRIPOS>ATOM
1	  S1	15.938	51.465	82.241	S.2	1	RES1	0.000	
2	  O5	10.158	57.366	96.028	O.3	1	RES1	0.000	
3	  O6	12.459	56.356	94.857	O.2	1	RES1	0.000	
4	  O7	10.830	53.644	91.779	O.2	1	RES1	0.000	
5	  O8	14.402	56.874	90.845	O.3	1	RES1	0.000	
6	  N9	11.381	54.372	94.328	N.pl3	1	RES1	0.000	
7	  O9	12.879	52.143	89.271	O.2	1	RES1	0.000	
8	 N10	12.936	54.228	91.102	N.pl3	1	RES1	0.000	
9	 N11	11.702	53.387	87.713	N.pl3	1	RES1	0.000	
10	 N12	15.027	50.260	80.154	N.2	1	RES1	0.000	
11	 C34	10.229	55.982	95.722	C.3	1	RES1	0.000	
12	 C35	11.463	55.610	94.939	C.2	1	RES1	0.000	
13	 C36	12.455	53.775	93.541	C.3	1	RES1	0.000	
14	 C37	11.990	53.879	92.061	C.2	1	RES1	0.000	
15	 C38	14.324	54.546	91.512	C.3	1	RES1	0.000	
16	 C39	14.788	55.538	90.482	C.3	1	RES1	0.000	
17	 C40	14.095	55.141	89.213	C.3	1	RES1	0.000	
18	 C41	12.770	54.497	89.658	C.3	1	RES1	0.000	
19	 C42	12.511	53.224	88.830	C.2	1	RES1	0.000	
20	 C43	11.163	52.248	87.008	C.3	1	RES1	0.000	
21	 C44	12.001	51.906	85.767	C.2	1	RES1	0.000	
22	 C45	12.869	52.856	85.214	C.2	1	RES1	0.000	
23	 C46	13.579	52.556	84.066	C.2	1	RES1	0.000	
24	 C47	13.440	51.302	83.431	C.2	1	RES1	0.000	
25	 C48	14.258	50.995	82.230	C.2	1	RES1	0.000	
26	 C49	13.988	50.374	81.027	C.2	1	RES1	0.000	
27	 C50	12.653	49.858	80.577	C.3	1	RES1	0.000	
28	 C51	16.128	50.798	80.679	C.2	1	RES1	0.000	
29	 C52	12.594	50.355	84.019	C.2	1	RES1	0.000	
30	 C53	11.891	50.670	85.187	C.2	1	RES1	0.000	
31	 C54	12.775	52.306	93.951	C.3	1	RES1	0.000	
32	 C55	13.241	52.276	95.427	C.3	1	RES1	0.000	
33	 C56	13.897	51.692	93.106	C.3	1	RES1	0.000	
34	 C57	11.538	51.385	93.864	C.3	1	RES1	0.000	
@<TRIPOS>BOND
1 1 25 ar
2 1 28 ar
3 8 14 1
4 8 15 1
5 8 18 1
6 9 19 1
7 9 20 1
8 10 26 ar
9 10 28 ar
10 2 11 1
11 11 12 1
12 3 12 2
13 6 12 1
14 6 13 1
15 13 14 1
16 13 31 1
17 4 14 2
18 15 16 1
19 5 16 1
20 16 17 1
21 17 18 1
22 18 19 1
23 7 19 2
24 20 21 1
25 21 22 ar
26 21 30 ar
27 22 23 ar
28 23 24 ar
29 24 25 1
30 24 29 ar
31 25 26 ar
32 26 27 1
33 29 30 ar
34 31 32 1
35 31 33 1
36 31 34 1
@<TRIPOS>SUBSTRUCTURE
1	RES1	1	GROUP	1 ****	RES
