# created with PyMOL 2.5.2
@<TRIPOS>MOLECULE
EGFR_4W9H_E3ligase
33 35 1                 
SMALL
USER_CHARGES
@<TRIPOS>ATOM
1	  S1	15.515	51.486	82.066	S.2	1	RES1	0.000	
2	  O3	12.280	56.254	94.765	O.2	1	RES1	0.000	
3	  N4	10.993	54.510	94.002	N.pl3	1	RES1	0.000	
4	  O4	10.563	53.688	91.399	O.2	1	RES1	0.000	
5	  N5	12.778	54.065	90.875	N.pl3	1	RES1	0.000	
6	  O5	14.135	56.661	90.252	O.3	1	RES1	0.000	
7	  N6	11.240	53.074	87.712	N.pl3	1	RES1	0.000	
8	  O6	12.442	51.826	89.238	O.2	1	RES1	0.000	
9	  N7	14.514	50.295	80.027	N.2	1	RES1	0.000	
10	 C14	9.931	56.279	95.203	C.3	1	RES1	0.000	
11	 C15	11.189	55.725	94.655	C.2	1	RES1	0.000	
12	 C16	12.040	53.789	93.304	C.3	1	RES1	0.000	
13	 C17	11.709	53.856	91.784	C.2	1	RES1	0.000	
14	 C18	14.144	54.419	91.202	C.3	1	RES1	0.000	
15	 C19	14.552	55.300	90.035	C.3	1	RES1	0.000	
16	 C20	13.841	54.738	88.882	C.3	1	RES1	0.000	
17	 C21	12.501	54.248	89.433	C.3	1	RES1	0.000	
18	 C22	12.082	52.928	88.796	C.2	1	RES1	0.000	
19	 C23	10.730	51.961	86.920	C.3	1	RES1	0.000	
20	 C24	11.517	51.738	85.672	C.2	1	RES1	0.000	
21	 C25	12.372	52.725	85.166	C.2	1	RES1	0.000	
22	 C26	13.135	52.464	84.018	C.2	1	RES1	0.000	
23	 C27	13.069	51.261	83.372	C.2	1	RES1	0.000	
24	 C28	13.855	50.973	82.156	C.2	1	RES1	0.000	
25	 C29	13.498	50.383	80.941	C.2	1	RES1	0.000	
26	 C30	12.178	49.868	80.539	C.3	1	RES1	0.000	
27	 C31	15.611	50.836	80.466	C.2	1	RES1	0.000	
28	 C32	12.228	50.278	83.866	C.2	1	RES1	0.000	
29	 C33	11.477	50.494	85.015	C.2	1	RES1	0.000	
30	 C34	12.273	52.325	93.818	C.3	1	RES1	0.000	
31	 C35	13.367	51.582	93.045	C.3	1	RES1	0.000	
32	 C36	12.673	52.412	95.291	C.3	1	RES1	0.000	
33	 C37	10.936	51.557	93.702	C.3	1	RES1	0.000	
@<TRIPOS>BOND
1 1 24 ar
2 1 27 ar
3 10 11 1
4 2 11 2
5 3 11 1
6 3 12 1
7 12 13 1
8 12 30 1
9 4 13 2
10 5 13 1
11 5 14 1
12 14 15 1
13 6 15 1
14 15 16 1
15 16 17 1
16 5 17 1
17 17 18 1
18 7 18 1
19 8 18 2
20 7 19 1
21 19 20 1
22 20 21 ar
23 20 29 ar
24 21 22 ar
25 22 23 ar
26 23 24 1
27 23 28 ar
28 24 25 ar
29 9 25 ar
30 25 26 1
31 9 27 ar
32 28 29 ar
33 30 31 1
34 30 32 1
35 30 33 1
@<TRIPOS>SUBSTRUCTURE
1	RES1	1	GROUP	1 ****	RES
