# created with PyMOL 2.5.2
@<TRIPOS>MOLECULE
EGFR_4W9H_E3ligase
33 35 1                 
SMALL
USER_CHARGES
@<TRIPOS>ATOM
1	  S1	15.497	51.788	82.220	S.2	1	RES1	0.000	
2	  O3	12.460	56.411	94.662	O.2	1	RES1	0.000	
3	  N4	11.110	54.636	94.086	N.pl3	1	RES1	0.000	
4	  O4	10.372	53.790	91.618	O.2	1	RES1	0.000	
5	  N5	12.515	54.137	90.838	N.pl3	1	RES1	0.000	
6	  O5	15.494	55.539	89.438	O.3	1	RES1	0.000	
7	  N6	10.957	52.796	87.749	N.pl3	1	RES1	0.000	
8	  O6	12.416	51.800	89.196	O.2	1	RES1	0.000	
9	  N7	14.660	50.634	80.067	N.2	1	RES1	0.000	
10	 C14	10.170	56.462	95.381	C.3	1	RES1	0.000	
11	 C15	11.373	55.860	94.678	C.2	1	RES1	0.000	
12	 C16	12.088	53.881	93.313	C.3	1	RES1	0.000	
13	 C17	11.596	53.923	91.871	C.2	1	RES1	0.000	
14	 C18	13.897	54.529	90.982	C.3	1	RES1	0.000	
15	 C19	14.464	54.541	89.540	C.3	1	RES1	0.000	
16	 C20	13.245	54.903	88.721	C.3	1	RES1	0.000	
17	 C21	12.080	54.178	89.428	C.3	1	RES1	0.000	
18	 C22	11.853	52.808	88.771	C.2	1	RES1	0.000	
19	 C23	10.621	51.599	87.009	C.3	1	RES1	0.000	
20	 C24	11.435	51.518	85.729	C.2	1	RES1	0.000	
21	 C25	12.151	52.612	85.243	C.2	1	RES1	0.000	
22	 C26	12.946	52.506	84.125	C.2	1	RES1	0.000	
23	 C27	13.053	51.292	83.431	C.2	1	RES1	0.000	
24	 C28	13.896	51.176	82.232	C.2	1	RES1	0.000	
25	 C29	13.611	50.612	80.984	C.2	1	RES1	0.000	
26	 C30	12.351	50.015	80.543	C.3	1	RES1	0.000	
27	 C31	15.695	51.243	80.616	C.2	1	RES1	0.000	
28	 C32	12.339	50.200	83.909	C.2	1	RES1	0.000	
29	 C33	11.541	50.309	85.043	C.2	1	RES1	0.000	
30	 C34	12.325	52.467	93.880	C.3	1	RES1	0.000	
31	 C35	13.228	51.569	92.995	C.3	1	RES1	0.000	
32	 C36	12.975	52.542	95.279	C.3	1	RES1	0.000	
33	 C37	10.954	51.732	94.054	C.3	1	RES1	0.000	
@<TRIPOS>BOND
1 1 24 ar
2 1 27 ar
3 10 11 1
4 2 11 2
5 3 11 1
6 3 12 1
7 12 13 1
8 12 30 1
9 4 13 2
10 5 13 1
11 5 14 1
12 14 15 1
13 6 15 1
14 15 16 1
15 16 17 1
16 5 17 1
17 17 18 1
18 7 18 1
19 8 18 2
20 7 19 1
21 19 20 1
22 20 21 ar
23 20 29 ar
24 21 22 ar
25 22 23 ar
26 23 24 1
27 23 28 ar
28 24 25 ar
29 9 25 ar
30 25 26 1
31 9 27 ar
32 28 29 ar
33 30 31 1
34 30 32 1
35 30 33 1
@<TRIPOS>SUBSTRUCTURE
1	RES1	1	GROUP	1 ****	RES
