# created with PyMOL 2.5.2
@<TRIPOS>MOLECULE
EGFR_4W9H_E3ligase
33 35 1                 
SMALL
USER_CHARGES
@<TRIPOS>ATOM
1	  S1	15.513	51.420	82.126	S.2	1	RES1	0.000	
2	  O3	12.439	56.267	94.694	O.2	1	RES1	0.000	
3	  N4	11.087	54.504	94.019	N.pl3	1	RES1	0.000	
4	  O4	10.611	53.701	91.433	O.2	1	RES1	0.000	
5	  N5	12.788	54.089	90.867	N.pl3	1	RES1	0.000	
6	  O5	14.148	56.704	90.090	O.3	1	RES1	0.000	
7	  N6	11.173	53.088	87.676	N.pl3	1	RES1	0.000	
8	  O6	12.248	51.845	89.287	O.2	1	RES1	0.000	
9	  N7	14.481	50.357	80.021	N.2	1	RES1	0.000	
10	 C14	10.132	56.349	95.249	C.3	1	RES1	0.000	
11	 C15	11.352	55.718	94.643	C.2	1	RES1	0.000	
12	 C16	12.125	53.745	93.319	C.3	1	RES1	0.000	
13	 C17	11.745	53.831	91.800	C.2	1	RES1	0.000	
14	 C18	14.147	54.516	91.157	C.3	1	RES1	0.000	
15	 C19	14.565	55.349	89.925	C.3	1	RES1	0.000	
16	 C20	13.773	54.697	88.804	C.3	1	RES1	0.000	
17	 C21	12.474	54.219	89.436	C.3	1	RES1	0.000	
18	 C22	12.020	52.911	88.768	C.2	1	RES1	0.000	
19	 C23	10.679	51.969	86.922	C.3	1	RES1	0.000	
20	 C24	11.508	51.737	85.678	C.2	1	RES1	0.000	
21	 C25	11.440	50.504	85.023	C.2	1	RES1	0.000	
22	 C26	12.192	50.267	83.879	C.2	1	RES1	0.000	
23	 C27	13.048	51.242	83.401	C.2	1	RES1	0.000	
24	 C28	13.858	50.984	82.169	C.2	1	RES1	0.000	
25	 C29	13.496	50.414	80.948	C.2	1	RES1	0.000	
26	 C30	12.178	49.878	80.561	C.3	1	RES1	0.000	
27	 C31	15.589	50.851	80.515	C.2	1	RES1	0.000	
28	 C32	13.105	52.480	84.021	C.2	1	RES1	0.000	
29	 C33	12.323	52.711	85.155	C.2	1	RES1	0.000	
30	 C34	12.256	52.306	93.844	C.3	1	RES1	0.000	
31	 C35	13.242	51.419	93.047	C.3	1	RES1	0.000	
32	 C36	12.742	52.337	95.317	C.3	1	RES1	0.000	
33	 C37	10.892	51.600	93.845	C.3	1	RES1	0.000	
@<TRIPOS>BOND
1 1 24 ar
2 1 27 ar
3 10 11 1
4 2 11 2
5 3 11 1
6 3 12 1
7 12 13 1
8 12 30 1
9 4 13 2
10 5 13 1
11 5 14 1
12 14 15 1
13 6 15 1
14 15 16 1
15 16 17 1
16 5 17 1
17 17 18 1
18 7 18 1
19 8 18 2
20 7 19 1
21 19 20 1
22 20 21 ar
23 20 29 ar
24 21 22 ar
25 22 23 ar
26 23 24 1
27 23 28 ar
28 24 25 ar
29 9 25 ar
30 25 26 1
31 9 27 ar
32 28 29 ar
33 30 31 1
34 30 32 1
35 30 33 1
@<TRIPOS>SUBSTRUCTURE
1	RES1	1	GROUP	1 ****	RES
