# created with PyMOL 2.5.2
@<TRIPOS>MOLECULE
EGFR_4W9H_E3ligase
33 35 1                 
SMALL
USER_CHARGES
@<TRIPOS>ATOM
1	  S1	15.504	51.798	82.242	S.2	1	RES1	0.000	
2	  O3	12.452	56.442	94.602	O.2	1	RES1	0.000	
3	  N4	11.101	54.650	94.079	N.pl3	1	RES1	0.000	
4	  O4	10.391	53.788	91.601	O.2	1	RES1	0.000	
5	  N5	12.520	54.139	90.842	N.pl3	1	RES1	0.000	
6	  O5	15.506	55.500	89.420	O.3	1	RES1	0.000	
7	  N6	10.937	52.787	87.728	N.pl3	1	RES1	0.000	
8	  O6	12.380	51.788	89.219	O.2	1	RES1	0.000	
9	  N7	14.658	50.688	80.076	N.2	1	RES1	0.000	
10	 C14	10.175	56.481	95.357	C.3	1	RES1	0.000	
11	 C15	11.360	55.857	94.675	C.2	1	RES1	0.000	
12	 C16	12.105	53.886	93.314	C.3	1	RES1	0.000	
13	 C17	11.566	53.925	91.855	C.2	1	RES1	0.000	
14	 C18	13.916	54.507	90.994	C.3	1	RES1	0.000	
15	 C19	14.468	54.524	89.570	C.3	1	RES1	0.000	
16	 C20	13.252	54.880	88.724	C.3	1	RES1	0.000	
17	 C21	12.084	54.177	89.423	C.3	1	RES1	0.000	
18	 C22	11.850	52.806	88.777	C.2	1	RES1	0.000	
19	 C23	10.603	51.571	86.993	C.3	1	RES1	0.000	
20	 C24	11.422	51.495	85.737	C.2	1	RES1	0.000	
21	 C25	12.127	52.598	85.265	C.2	1	RES1	0.000	
22	 C26	12.950	52.498	84.143	C.2	1	RES1	0.000	
23	 C27	13.052	51.290	83.431	C.2	1	RES1	0.000	
24	 C28	13.882	51.187	82.250	C.2	1	RES1	0.000	
25	 C29	13.638	50.634	80.985	C.2	1	RES1	0.000	
26	 C30	12.336	50.035	80.532	C.3	1	RES1	0.000	
27	 C31	15.720	51.265	80.619	C.2	1	RES1	0.000	
28	 C32	12.339	50.194	83.905	C.2	1	RES1	0.000	
29	 C33	11.534	50.288	85.042	C.2	1	RES1	0.000	
30	 C34	12.336	52.459	93.884	C.3	1	RES1	0.000	
31	 C35	13.269	51.605	93.038	C.3	1	RES1	0.000	
32	 C36	12.949	52.544	95.283	C.3	1	RES1	0.000	
33	 C37	10.989	51.724	94.028	C.3	1	RES1	0.000	
@<TRIPOS>BOND
1 1 24 ar
2 1 27 ar
3 10 11 1
4 2 11 2
5 3 11 1
6 3 12 1
7 12 13 1
8 12 30 1
9 4 13 2
10 5 13 1
11 5 14 1
12 14 15 1
13 6 15 1
14 15 16 1
15 16 17 1
16 5 17 1
17 17 18 1
18 7 18 1
19 8 18 2
20 7 19 1
21 19 20 1
22 20 21 ar
23 20 29 ar
24 21 22 ar
25 22 23 ar
26 23 24 1
27 23 28 ar
28 24 25 ar
29 9 25 ar
30 25 26 1
31 9 27 ar
32 28 29 ar
33 30 31 1
34 30 32 1
35 30 33 1
@<TRIPOS>SUBSTRUCTURE
1	RES1	1	GROUP	1 ****	RES
