# created with PyMOL 2.5.2
@<TRIPOS>MOLECULE
EGFR_4W9H_E3ligase
33 35 1                 
SMALL
USER_CHARGES
@<TRIPOS>ATOM
1	  S1	15.512	51.380	82.148	S.2	1	RES1	0.000	
2	  O4	12.422	56.263	94.671	O.2	1	RES1	0.000	
3	  O5	10.631	53.631	91.423	O.2	1	RES1	0.000	
4	  N6	11.085	54.509	94.011	N.pl3	1	RES1	0.000	
5	  O6	14.080	56.725	90.110	O.3	1	RES1	0.000	
6	  N7	12.800	54.095	90.904	N.pl3	1	RES1	0.000	
7	  O7	12.354	51.835	89.196	O.2	1	RES1	0.000	
8	  N8	11.213	53.105	87.671	N.pl3	1	RES1	0.000	
9	  N9	14.530	50.331	80.044	N.2	1	RES1	0.000	
10	 C23	10.125	56.349	95.227	C.3	1	RES1	0.000	
11	 C24	11.357	55.703	94.629	C.2	1	RES1	0.000	
12	 C25	12.126	53.754	93.319	C.3	1	RES1	0.000	
13	 C26	11.770	53.835	91.803	C.2	1	RES1	0.000	
14	 C27	14.142	54.553	91.191	C.3	1	RES1	0.000	
15	 C28	14.546	55.379	89.972	C.3	1	RES1	0.000	
16	 C29	13.790	54.725	88.825	C.3	1	RES1	0.000	
17	 C30	12.476	54.207	89.447	C.3	1	RES1	0.000	
18	 C31	12.062	52.923	88.757	C.2	1	RES1	0.000	
19	 C32	10.668	51.992	86.920	C.3	1	RES1	0.000	
20	 C33	11.445	51.744	85.671	C.2	1	RES1	0.000	
21	 C34	12.300	52.742	85.159	C.2	1	RES1	0.000	
22	 C35	13.081	52.500	84.032	C.2	1	RES1	0.000	
23	 C36	13.013	51.254	83.354	C.2	1	RES1	0.000	
24	 C37	13.840	50.987	82.160	C.2	1	RES1	0.000	
25	 C38	13.499	50.401	80.948	C.2	1	RES1	0.000	
26	 C39	12.167	49.875	80.536	C.3	1	RES1	0.000	
27	 C40	15.616	50.790	80.551	C.2	1	RES1	0.000	
28	 C41	12.149	50.296	83.879	C.2	1	RES1	0.000	
29	 C42	11.396	50.527	85.006	C.2	1	RES1	0.000	
30	 C43	12.272	52.273	93.872	C.3	1	RES1	0.000	
31	 C44	12.771	52.303	95.329	C.3	1	RES1	0.000	
32	 C45	13.246	51.433	93.013	C.3	1	RES1	0.000	
33	 C46	10.887	51.597	93.861	C.3	1	RES1	0.000	
@<TRIPOS>BOND
1 1 24 ar
2 1 27 ar
3 10 11 1
4 2 11 2
5 4 11 1
6 4 12 1
7 12 13 1
8 12 30 1
9 3 13 2
10 6 13 1
11 6 14 1
12 14 15 1
13 5 15 1
14 15 16 1
15 16 17 1
16 6 17 1
17 17 18 1
18 7 18 2
19 8 18 1
20 8 19 1
21 19 20 1
22 20 21 ar
23 20 29 ar
24 21 22 ar
25 22 23 ar
26 23 24 1
27 23 28 ar
28 24 25 ar
29 9 25 ar
30 25 26 1
31 9 27 ar
32 28 29 ar
33 30 31 1
34 30 32 1
35 30 33 1
@<TRIPOS>SUBSTRUCTURE
1	RES1	1	GROUP	1 ****	RES
