# created with PyMOL 2.5.2
@<TRIPOS>MOLECULE
BRD4_7BQU_E3ligase
19 21 1                 
SMALL
USER_CHARGES
@<TRIPOS>ATOM
1	  N4	25.402	17.717	13.150	N.2	1	RES1	0.000	
2	  O4	23.096	17.676	13.654	O.2	1	RES1	0.000	
3	  N5	25.081	19.882	16.050	N.pl3	1	RES1	0.000	
4	  O5	26.356	20.296	17.920	O.2	1	RES1	0.000	
5	  O6	23.770	19.648	14.248	O.2	1	RES1	0.000	
6	  O7	27.380	17.256	11.947	O.2	1	RES1	0.000	
7	 C24	24.464	14.842	9.657	C.2	1	RES1	0.000	
8	 C25	23.158	14.944	10.190	C.2	1	RES1	0.000	
9	 C26	22.934	15.753	11.293	C.2	1	RES1	0.000	
10	 C27	24.037	16.429	11.857	C.2	1	RES1	0.000	
11	 C28	24.082	17.320	12.997	C.2	1	RES1	0.000	
12	 C29	25.950	18.645	14.131	C.3	1	RES1	0.000	
13	 C30	26.831	17.941	15.183	C.3	1	RES1	0.000	
14	 C31	27.359	18.977	16.152	C.3	1	RES1	0.000	
15	 C32	26.221	19.761	16.822	C.2	1	RES1	0.000	
16	 C33	24.828	19.408	14.831	C.2	1	RES1	0.000	
17	 C34	26.190	17.135	12.172	C.2	1	RES1	0.000	
18	 C35	25.296	16.314	11.346	C.2	1	RES1	0.000	
19	 C36	25.561	15.508	10.238	C.2	1	RES1	0.000	
@<TRIPOS>BOND
1 7 8 ar
2 7 19 ar
3 8 9 ar
4 9 10 ar
5 10 11 ar
6 10 18 ar
7 1 11 ar
8 2 11 2
9 1 12 1
10 12 13 1
11 12 16 1
12 13 14 1
13 14 15 1
14 3 15 1
15 4 15 2
16 3 16 1
17 5 16 2
18 1 17 ar
19 6 17 2
20 17 18 ar
21 18 19 ar
@<TRIPOS>SUBSTRUCTURE
1	RES1	1	GROUP	1 ****	RES
