# created with PyMOL 2.5.2
@<TRIPOS>MOLECULE
EGFR_4W9H_E3ligase
33 35 1                 
SMALL
USER_CHARGES
@<TRIPOS>ATOM
1	  S1	15.524	51.449	82.208	S.2	1	RES1	0.000	
2	  O4	12.280	56.335	94.706	O.2	1	RES1	0.000	
3	  O5	10.601	53.667	91.438	O.2	1	RES1	0.000	
4	  N6	11.023	54.510	94.002	N.pl3	1	RES1	0.000	
5	  O6	14.113	56.672	90.035	O.3	1	RES1	0.000	
6	  N7	12.797	54.068	90.914	N.pl3	1	RES1	0.000	
7	  O7	12.335	51.776	89.273	O.2	1	RES1	0.000	
8	  N8	11.226	53.052	87.693	N.pl3	1	RES1	0.000	
9	  N9	14.623	50.356	80.029	N.2	1	RES1	0.000	
10	 C23	9.948	56.316	95.172	C.3	1	RES1	0.000	
11	 C24	11.212	55.689	94.620	C.2	1	RES1	0.000	
12	 C25	12.100	53.795	93.319	C.3	1	RES1	0.000	
13	 C26	11.732	53.843	91.809	C.2	1	RES1	0.000	
14	 C27	14.150	54.522	91.216	C.3	1	RES1	0.000	
15	 C28	14.568	55.310	89.985	C.3	1	RES1	0.000	
16	 C29	13.841	54.595	88.835	C.3	1	RES1	0.000	
17	 C30	12.516	54.162	89.452	C.3	1	RES1	0.000	
18	 C31	12.051	52.852	88.773	C.2	1	RES1	0.000	
19	 C32	10.679	51.964	86.923	C.3	1	RES1	0.000	
20	 C33	11.454	51.729	85.652	C.2	1	RES1	0.000	
21	 C34	12.317	52.711	85.121	C.2	1	RES1	0.000	
22	 C35	13.077	52.473	84.018	C.2	1	RES1	0.000	
23	 C36	12.999	51.257	83.333	C.2	1	RES1	0.000	
24	 C37	13.853	51.006	82.152	C.2	1	RES1	0.000	
25	 C38	13.541	50.453	80.934	C.2	1	RES1	0.000	
26	 C39	12.224	49.989	80.438	C.3	1	RES1	0.000	
27	 C40	15.697	50.855	80.605	C.2	1	RES1	0.000	
28	 C41	12.157	50.270	83.846	C.2	1	RES1	0.000	
29	 C42	11.406	50.489	84.988	C.2	1	RES1	0.000	
30	 C43	12.293	52.340	93.868	C.3	1	RES1	0.000	
31	 C44	12.654	52.405	95.371	C.3	1	RES1	0.000	
32	 C45	13.399	51.537	93.151	C.3	1	RES1	0.000	
33	 C46	10.979	51.557	93.749	C.3	1	RES1	0.000	
@<TRIPOS>BOND
1 1 24 ar
2 1 27 ar
3 10 11 1
4 2 11 2
5 4 11 1
6 4 12 1
7 12 13 1
8 12 30 1
9 3 13 2
10 6 13 1
11 6 14 1
12 14 15 1
13 5 15 1
14 15 16 1
15 16 17 1
16 6 17 1
17 17 18 1
18 7 18 2
19 8 18 1
20 8 19 1
21 19 20 1
22 20 21 ar
23 20 29 ar
24 21 22 ar
25 22 23 ar
26 23 24 1
27 23 28 ar
28 24 25 ar
29 9 25 ar
30 25 26 1
31 9 27 ar
32 28 29 ar
33 30 31 1
34 30 32 1
35 30 33 1
@<TRIPOS>SUBSTRUCTURE
1	RES1	1	GROUP	1 ****	RES
