# created with PyMOL 2.5.2
@<TRIPOS>MOLECULE
EGFR_4W9H_E3ligase
33 35 1                 
SMALL
USER_CHARGES
@<TRIPOS>ATOM
1	  S1	15.583	51.305	81.979	S.2	1	RES1	0.000	
2	  O4	12.258	56.412	94.690	O.2	1	RES1	0.000	
3	  O5	10.428	53.675	91.622	O.2	1	RES1	0.000	
4	  N6	11.027	54.529	94.131	N.pl3	1	RES1	0.000	
5	  O6	14.171	56.630	90.563	O.3	1	RES1	0.000	
6	  N7	12.578	54.118	90.925	N.pl3	1	RES1	0.000	
7	  O7	12.448	51.953	89.114	O.2	1	RES1	0.000	
8	  N8	11.306	53.180	87.577	N.pl3	1	RES1	0.000	
9	  N9	14.508	50.229	79.911	N.2	1	RES1	0.000	
10	 C24	10.018	56.202	95.513	C.3	1	RES1	0.000	
11	 C25	11.247	55.760	94.738	C.2	1	RES1	0.000	
12	 C26	12.070	53.818	93.377	C.3	1	RES1	0.000	
13	 C27	11.613	53.867	91.897	C.2	1	RES1	0.000	
14	 C28	13.945	54.335	91.324	C.3	1	RES1	0.000	
15	 C29	14.495	55.294	90.249	C.3	1	RES1	0.000	
16	 C30	13.776	54.824	89.007	C.3	1	RES1	0.000	
17	 C31	12.394	54.309	89.486	C.3	1	RES1	0.000	
18	 C32	12.097	53.021	88.706	C.2	1	RES1	0.000	
19	 C33	10.757	52.053	86.830	C.3	1	RES1	0.000	
20	 C34	11.586	51.755	85.606	C.2	1	RES1	0.000	
21	 C35	11.504	50.506	84.943	C.2	1	RES1	0.000	
22	 C36	12.252	50.249	83.833	C.2	1	RES1	0.000	
23	 C37	13.136	51.190	83.310	C.2	1	RES1	0.000	
24	 C38	13.904	50.921	82.070	C.2	1	RES1	0.000	
25	 C39	13.497	50.357	80.855	C.2	1	RES1	0.000	
26	 C40	12.132	49.923	80.450	C.3	1	RES1	0.000	
27	 C41	15.640	50.701	80.397	C.2	1	RES1	0.000	
28	 C42	13.210	52.433	83.957	C.2	1	RES1	0.000	
29	 C43	12.463	52.708	85.085	C.2	1	RES1	0.000	
30	 C44	12.312	52.395	93.924	C.3	1	RES1	0.000	
31	 C45	10.985	51.548	93.811	C.3	1	RES1	0.000	
32	 C46	13.390	51.647	93.133	C.3	1	RES1	0.000	
33	 C47	12.708	52.371	95.411	C.3	1	RES1	0.000	
@<TRIPOS>BOND
1 1 24 ar
2 1 27 ar
3 10 11 1
4 2 11 2
5 4 11 1
6 4 12 1
7 12 13 1
8 12 30 1
9 3 13 2
10 6 13 1
11 6 14 1
12 14 15 1
13 5 15 1
14 15 16 1
15 16 17 1
16 6 17 1
17 17 18 1
18 7 18 2
19 8 18 1
20 8 19 1
21 19 20 1
22 20 21 ar
23 20 29 ar
24 21 22 ar
25 22 23 ar
26 23 24 1
27 23 28 ar
28 24 25 ar
29 9 25 ar
30 25 26 1
31 9 27 ar
32 28 29 ar
33 30 31 1
34 30 32 1
35 30 33 1
@<TRIPOS>SUBSTRUCTURE
1	RES1	1	GROUP	1 ****	RES
