# created with PyMOL 2.5.2
@<TRIPOS>MOLECULE
EGFR_4W9H_E3ligase
33 35 1                 
SMALL
USER_CHARGES
@<TRIPOS>ATOM
1	  S1	15.547	51.446	82.066	S.2	1	RES1	0.000	
2	  O4	12.273	56.261	94.680	O.2	1	RES1	0.000	
3	  O5	10.567	53.688	91.368	O.2	1	RES1	0.000	
4	  N6	10.970	54.508	93.973	N.pl3	1	RES1	0.000	
5	  O6	14.250	56.638	90.369	O.3	1	RES1	0.000	
6	  N7	12.752	54.092	90.855	N.pl3	1	RES1	0.000	
7	  O7	12.411	51.866	89.235	O.2	1	RES1	0.000	
8	  N8	11.232	53.102	87.699	N.pl3	1	RES1	0.000	
9	  N9	14.461	50.359	80.013	N.2	1	RES1	0.000	
10	 C24	9.932	56.273	95.224	C.3	1	RES1	0.000	
11	 C25	11.199	55.693	94.613	C.2	1	RES1	0.000	
12	 C26	12.039	53.780	93.283	C.3	1	RES1	0.000	
13	 C27	11.688	53.866	91.779	C.2	1	RES1	0.000	
14	 C28	14.154	54.346	91.152	C.3	1	RES1	0.000	
15	 C29	14.598	55.304	90.041	C.3	1	RES1	0.000	
16	 C30	13.791	54.825	88.853	C.3	1	RES1	0.000	
17	 C31	12.485	54.300	89.429	C.3	1	RES1	0.000	
18	 C32	12.066	52.961	88.778	C.2	1	RES1	0.000	
19	 C33	10.731	51.958	86.950	C.3	1	RES1	0.000	
20	 C34	11.533	51.689	85.689	C.2	1	RES1	0.000	
21	 C35	12.375	52.698	85.199	C.2	1	RES1	0.000	
22	 C36	13.144	52.476	84.062	C.2	1	RES1	0.000	
23	 C37	13.125	51.233	83.379	C.2	1	RES1	0.000	
24	 C38	13.883	50.988	82.184	C.2	1	RES1	0.000	
25	 C39	13.495	50.411	80.969	C.2	1	RES1	0.000	
26	 C40	12.164	49.800	80.625	C.3	1	RES1	0.000	
27	 C41	15.575	50.903	80.447	C.2	1	RES1	0.000	
28	 C42	12.238	50.229	83.916	C.2	1	RES1	0.000	
29	 C43	11.470	50.468	85.043	C.2	1	RES1	0.000	
30	 C44	12.234	52.361	93.801	C.3	1	RES1	0.000	
31	 C45	13.339	51.632	92.965	C.3	1	RES1	0.000	
32	 C46	12.677	52.355	95.257	C.3	1	RES1	0.000	
33	 C47	10.971	51.490	93.722	C.3	1	RES1	0.000	
@<TRIPOS>BOND
1 1 24 ar
2 1 27 ar
3 10 11 1
4 2 11 2
5 4 11 1
6 4 12 1
7 12 13 1
8 12 30 1
9 3 13 2
10 6 13 1
11 6 14 1
12 14 15 1
13 5 15 1
14 15 16 1
15 16 17 1
16 6 17 1
17 17 18 1
18 7 18 2
19 8 18 1
20 8 19 1
21 19 20 1
22 20 21 ar
23 20 29 ar
24 21 22 ar
25 22 23 ar
26 23 24 1
27 23 28 ar
28 24 25 ar
29 9 25 ar
30 25 26 1
31 9 27 ar
32 28 29 ar
33 30 31 1
34 30 32 1
35 30 33 1
@<TRIPOS>SUBSTRUCTURE
1	RES1	1	GROUP	1 ****	RES
