# created with PyMOL 2.5.2
@<TRIPOS>MOLECULE
EGFR_4W9H_E3ligase
33 35 1                 
SMALL
USER_CHARGES
@<TRIPOS>ATOM
1	  S1	15.462	51.487	82.198	S.2	1	RES1	0.000	
2	  O2	12.464	56.251	94.681	O.2	1	RES1	0.000	
3	  O3	10.638	53.666	91.425	O.2	1	RES1	0.000	
4	  O4	14.142	56.737	90.087	O.3	1	RES1	0.000	
5	  O5	12.342	51.847	89.269	O.2	1	RES1	0.000	
6	  N9	11.085	54.506	93.998	N.pl3	1	RES1	0.000	
7	 N10	12.806	54.079	90.867	N.pl3	1	RES1	0.000	
8	 N11	11.213	53.082	87.686	N.pl3	1	RES1	0.000	
9	 N12	14.602	50.332	80.090	N.2	1	RES1	0.000	
10	 C28	10.145	56.339	95.217	C.3	1	RES1	0.000	
11	 C29	11.364	55.714	94.626	C.2	1	RES1	0.000	
12	 C30	12.148	53.752	93.292	C.3	1	RES1	0.000	
13	 C31	11.777	53.848	91.794	C.2	1	RES1	0.000	
14	 C32	14.160	54.543	91.165	C.3	1	RES1	0.000	
15	 C33	14.548	55.362	89.972	C.3	1	RES1	0.000	
16	 C34	13.803	54.719	88.797	C.3	1	RES1	0.000	
17	 C35	12.488	54.247	89.435	C.3	1	RES1	0.000	
18	 C36	12.062	52.929	88.751	C.2	1	RES1	0.000	
19	 C37	10.664	51.946	86.949	C.3	1	RES1	0.000	
20	 C38	11.422	51.701	85.680	C.2	1	RES1	0.000	
21	 C39	11.336	50.480	85.014	C.2	1	RES1	0.000	
22	 C40	12.087	50.270	83.847	C.2	1	RES1	0.000	
23	 C41	12.954	51.228	83.360	C.2	1	RES1	0.000	
24	 C42	13.802	50.985	82.179	C.2	1	RES1	0.000	
25	 C43	13.535	50.410	80.942	C.2	1	RES1	0.000	
26	 C44	12.231	49.902	80.487	C.3	1	RES1	0.000	
27	 C45	15.650	50.891	80.611	C.2	1	RES1	0.000	
28	 C46	13.048	52.441	84.038	C.2	1	RES1	0.000	
29	 C47	12.298	52.681	85.179	C.2	1	RES1	0.000	
30	 C48	12.259	52.293	93.835	C.3	1	RES1	0.000	
31	 C49	12.713	52.319	95.312	C.3	1	RES1	0.000	
32	 C50	13.247	51.407	93.048	C.3	1	RES1	0.000	
33	 C51	10.875	51.618	93.808	C.3	1	RES1	0.000	
@<TRIPOS>BOND
1 1 24 ar
2 1 27 ar
3 2 11 2
4 3 13 2
5 7 13 1
6 7 14 1
7 7 17 1
8 8 18 1
9 8 19 1
10 9 25 ar
11 9 27 ar
12 10 11 1
13 6 11 1
14 6 12 1
15 12 13 1
16 12 30 1
17 14 15 1
18 4 15 1
19 15 16 1
20 16 17 1
21 17 18 1
22 5 18 2
23 19 20 1
24 20 21 ar
25 20 29 ar
26 21 22 ar
27 22 23 ar
28 23 24 1
29 23 28 ar
30 24 25 ar
31 25 26 1
32 28 29 ar
33 30 31 1
34 30 32 1
35 30 33 1
@<TRIPOS>SUBSTRUCTURE
1	RES1	1	GROUP	1 ****	RES
