# created with PyMOL 2.5.2
@<TRIPOS>MOLECULE
EGFR_4W9H_E3ligase
33 35 1                 
SMALL
USER_CHARGES
@<TRIPOS>ATOM
1	  S1	15.500	51.385	82.097	S.2	1	RES1	0.000	
2	  O2	12.380	56.237	94.700	O.2	1	RES1	0.000	
3	  O3	10.634	53.644	91.404	O.2	1	RES1	0.000	
4	  O4	14.111	56.794	90.186	O.3	1	RES1	0.000	
5	  O5	12.320	51.886	89.251	O.2	1	RES1	0.000	
6	  N9	11.055	54.473	93.992	N.pl3	1	RES1	0.000	
7	 N10	12.805	54.125	90.896	N.pl3	1	RES1	0.000	
8	 N11	11.269	53.143	87.673	N.pl3	1	RES1	0.000	
9	 N12	14.479	50.234	80.010	N.2	1	RES1	0.000	
10	 C28	10.048	56.288	95.229	C.3	1	RES1	0.000	
11	 C29	11.303	55.686	94.638	C.2	1	RES1	0.000	
12	 C30	12.101	53.741	93.315	C.3	1	RES1	0.000	
13	 C31	11.787	53.828	91.817	C.2	1	RES1	0.000	
14	 C32	14.143	54.555	91.210	C.3	1	RES1	0.000	
15	 C33	14.545	55.411	90.039	C.3	1	RES1	0.000	
16	 C34	13.824	54.786	88.856	C.3	1	RES1	0.000	
17	 C35	12.516	54.259	89.475	C.3	1	RES1	0.000	
18	 C36	12.095	52.965	88.772	C.2	1	RES1	0.000	
19	 C37	10.713	52.040	86.916	C.3	1	RES1	0.000	
20	 C38	11.479	51.791	85.671	C.2	1	RES1	0.000	
21	 C39	12.357	52.764	85.138	C.2	1	RES1	0.000	
22	 C40	13.084	52.503	83.972	C.2	1	RES1	0.000	
23	 C41	13.001	51.239	83.341	C.2	1	RES1	0.000	
24	 C42	13.819	50.948	82.145	C.2	1	RES1	0.000	
25	 C43	13.466	50.355	80.935	C.2	1	RES1	0.000	
26	 C44	12.161	49.792	80.581	C.3	1	RES1	0.000	
27	 C45	15.596	50.757	80.516	C.2	1	RES1	0.000	
28	 C46	12.138	50.289	83.888	C.2	1	RES1	0.000	
29	 C47	11.399	50.549	85.025	C.2	1	RES1	0.000	
30	 C48	12.263	52.286	93.847	C.3	1	RES1	0.000	
31	 C49	12.799	52.260	95.272	C.3	1	RES1	0.000	
32	 C50	13.265	51.447	92.970	C.3	1	RES1	0.000	
33	 C51	10.911	51.538	93.838	C.3	1	RES1	0.000	
@<TRIPOS>BOND
1 1 24 ar
2 1 27 ar
3 2 11 2
4 3 13 2
5 7 13 1
6 7 14 1
7 7 17 1
8 8 18 1
9 8 19 1
10 9 25 ar
11 9 27 ar
12 10 11 1
13 6 11 1
14 6 12 1
15 12 13 1
16 12 30 1
17 14 15 1
18 4 15 1
19 15 16 1
20 16 17 1
21 17 18 1
22 5 18 2
23 19 20 1
24 20 21 ar
25 20 29 ar
26 21 22 ar
27 22 23 ar
28 23 24 1
29 23 28 ar
30 24 25 ar
31 25 26 1
32 28 29 ar
33 30 31 1
34 30 32 1
35 30 33 1
@<TRIPOS>SUBSTRUCTURE
1	RES1	1	GROUP	1 ****	RES
