# created with PyMOL 2.5.2
@<TRIPOS>MOLECULE
EGFR_4W9H_E3ligase
33 35 1                 
SMALL
USER_CHARGES
@<TRIPOS>ATOM
1	  S1	15.537	51.542	82.082	S.2	1	RES1	0.000	
2	  O2	12.366	56.311	94.694	O.2	1	RES1	0.000	
3	  O3	10.526	53.722	91.399	O.2	1	RES1	0.000	
4	  O4	14.206	56.603	90.276	O.3	1	RES1	0.000	
5	  O5	12.390	51.794	89.247	O.2	1	RES1	0.000	
6	  N9	11.016	54.581	93.991	N.pl3	1	RES1	0.000	
7	 N10	12.734	54.042	90.856	N.pl3	1	RES1	0.000	
8	 N11	11.197	52.981	87.716	N.pl3	1	RES1	0.000	
9	 N12	14.531	50.410	80.017	N.2	1	RES1	0.000	
10	 C29	10.040	56.360	95.242	C.3	1	RES1	0.000	
11	 C30	11.269	55.765	94.635	C.2	1	RES1	0.000	
12	 C31	12.055	53.818	93.268	C.3	1	RES1	0.000	
13	 C32	11.691	53.880	91.788	C.2	1	RES1	0.000	
14	 C33	14.110	54.333	91.153	C.3	1	RES1	0.000	
15	 C34	14.532	55.258	89.997	C.3	1	RES1	0.000	
16	 C35	13.752	54.767	88.811	C.3	1	RES1	0.000	
17	 C36	12.442	54.221	89.433	C.3	1	RES1	0.000	
18	 C37	12.057	52.878	88.798	C.2	1	RES1	0.000	
19	 C38	10.712	51.849	86.956	C.3	1	RES1	0.000	
20	 C39	11.526	51.637	85.712	C.2	1	RES1	0.000	
21	 C40	11.490	50.412	85.028	C.2	1	RES1	0.000	
22	 C41	12.250	50.227	83.849	C.2	1	RES1	0.000	
23	 C42	13.085	51.244	83.387	C.2	1	RES1	0.000	
24	 C43	13.887	51.017	82.159	C.2	1	RES1	0.000	
25	 C44	13.534	50.467	80.949	C.2	1	RES1	0.000	
26	 C45	12.199	49.912	80.523	C.3	1	RES1	0.000	
27	 C46	15.630	50.963	80.491	C.2	1	RES1	0.000	
28	 C47	13.120	52.455	84.078	C.2	1	RES1	0.000	
29	 C48	12.376	52.647	85.227	C.2	1	RES1	0.000	
30	 C49	12.243	52.357	93.815	C.3	1	RES1	0.000	
31	 C50	12.688	52.393	95.315	C.3	1	RES1	0.000	
32	 C51	13.287	51.575	93.023	C.3	1	RES1	0.000	
33	 C52	10.897	51.599	93.739	C.3	1	RES1	0.000	
@<TRIPOS>BOND
1 1 24 ar
2 1 27 ar
3 2 11 2
4 3 13 2
5 7 13 1
6 7 14 1
7 7 17 1
8 8 18 1
9 8 19 1
10 9 25 ar
11 9 27 ar
12 10 11 1
13 6 11 1
14 6 12 1
15 12 13 1
16 12 30 1
17 14 15 1
18 4 15 1
19 15 16 1
20 16 17 1
21 17 18 1
22 5 18 2
23 19 20 1
24 20 21 ar
25 20 29 ar
26 21 22 ar
27 22 23 ar
28 23 24 1
29 23 28 ar
30 24 25 ar
31 25 26 1
32 28 29 ar
33 30 31 1
34 30 32 1
35 30 33 1
@<TRIPOS>SUBSTRUCTURE
1	RES1	1	GROUP	1 ****	RES
