# created with PyMOL 2.5.2
@<TRIPOS>MOLECULE
EGFR_4W9H_E3ligase
33 35 1                 
SMALL
USER_CHARGES
@<TRIPOS>ATOM
1	  S1	15.500	51.355	82.142	S.2	1	RES1	0.000	
2	  O2	12.376	56.257	94.730	O.2	1	RES1	0.000	
3	  O3	10.634	53.625	91.436	O.2	1	RES1	0.000	
4	  O4	14.054	56.757	90.064	O.3	1	RES1	0.000	
5	  O5	12.380	51.832	89.232	O.2	1	RES1	0.000	
6	  N9	11.073	54.496	93.991	N.pl3	1	RES1	0.000	
7	 N10	12.818	54.107	90.894	N.pl3	1	RES1	0.000	
8	 N11	11.274	53.133	87.680	N.pl3	1	RES1	0.000	
9	 N12	14.517	50.280	80.029	N.2	1	RES1	0.000	
10	 C29	10.048	56.307	95.205	C.3	1	RES1	0.000	
11	 C30	11.296	55.696	94.624	C.2	1	RES1	0.000	
12	 C31	12.129	53.721	93.326	C.3	1	RES1	0.000	
13	 C32	11.779	53.824	91.805	C.2	1	RES1	0.000	
14	 C33	14.150	54.597	91.220	C.3	1	RES1	0.000	
15	 C34	14.518	55.423	89.982	C.3	1	RES1	0.000	
16	 C35	13.851	54.679	88.853	C.3	1	RES1	0.000	
17	 C36	12.528	54.236	89.472	C.3	1	RES1	0.000	
18	 C37	12.092	52.934	88.764	C.2	1	RES1	0.000	
19	 C38	10.695	52.022	86.930	C.3	1	RES1	0.000	
20	 C39	11.445	51.763	85.680	C.2	1	RES1	0.000	
21	 C40	11.344	50.563	85.003	C.2	1	RES1	0.000	
22	 C41	12.091	50.338	83.836	C.2	1	RES1	0.000	
23	 C42	12.986	51.277	83.344	C.2	1	RES1	0.000	
24	 C43	13.794	50.974	82.142	C.2	1	RES1	0.000	
25	 C44	13.487	50.400	80.932	C.2	1	RES1	0.000	
26	 C45	12.164	49.864	80.523	C.3	1	RES1	0.000	
27	 C46	15.612	50.743	80.570	C.2	1	RES1	0.000	
28	 C47	13.125	52.477	84.058	C.2	1	RES1	0.000	
29	 C48	12.361	52.722	85.181	C.2	1	RES1	0.000	
30	 C49	12.289	52.287	93.851	C.3	1	RES1	0.000	
31	 C50	12.796	52.295	95.296	C.3	1	RES1	0.000	
32	 C51	13.251	51.440	93.013	C.3	1	RES1	0.000	
33	 C52	10.913	51.584	93.823	C.3	1	RES1	0.000	
@<TRIPOS>BOND
1 1 24 ar
2 1 27 ar
3 2 11 2
4 3 13 2
5 7 13 1
6 7 14 1
7 7 17 1
8 8 18 1
9 8 19 1
10 9 25 ar
11 9 27 ar
12 10 11 1
13 6 11 1
14 6 12 1
15 12 13 1
16 12 30 1
17 14 15 1
18 4 15 1
19 15 16 1
20 16 17 1
21 17 18 1
22 5 18 2
23 19 20 1
24 20 21 ar
25 20 29 ar
26 21 22 ar
27 22 23 ar
28 23 24 1
29 23 28 ar
30 24 25 ar
31 25 26 1
32 28 29 ar
33 30 31 1
34 30 32 1
35 30 33 1
@<TRIPOS>SUBSTRUCTURE
1	RES1	1	GROUP	1 ****	RES
