# created with PyMOL 2.5.2
@<TRIPOS>MOLECULE
EGFR_4W9H_E3ligase
34 36 1                 
SMALL
USER_CHARGES
@<TRIPOS>ATOM
1	  S1	15.515	51.318	82.037	S.2	1	RES1	0.000	
2	  O2	12.396	56.338	94.656	O.2	1	RES1	0.000	
3	  O3	10.552	53.620	91.580	O.2	1	RES1	0.000	
4	  O4	14.014	56.718	90.367	O.3	1	RES1	0.000	
5	  O5	12.383	51.882	89.107	O.2	1	RES1	0.000	
6	  N9	11.110	54.529	94.094	N.pl3	1	RES1	0.000	
7	 N10	12.661	54.121	90.902	N.pl3	1	RES1	0.000	
8	 N11	11.274	53.190	87.571	N.pl3	1	RES1	0.000	
9	 N12	14.531	50.195	79.935	N.2	1	RES1	0.000	
10	 C29	10.426	57.331	96.447	C.3	1	RES1	0.000	
11	 C30	10.106	56.264	95.413	C.3	1	RES1	0.000	
12	 C31	11.345	55.743	94.687	C.2	1	RES1	0.000	
13	 C32	12.146	53.765	93.354	C.3	1	RES1	0.000	
14	 C33	11.702	53.837	91.896	C.2	1	RES1	0.000	
15	 C34	14.008	54.468	91.256	C.3	1	RES1	0.000	
16	 C35	14.479	55.384	90.121	C.3	1	RES1	0.000	
17	 C36	13.752	54.809	88.907	C.3	1	RES1	0.000	
18	 C37	12.428	54.285	89.461	C.3	1	RES1	0.000	
19	 C38	12.082	53.004	88.697	C.2	1	RES1	0.000	
20	 C39	10.726	52.103	86.790	C.3	1	RES1	0.000	
21	 C40	11.503	51.813	85.559	C.2	1	RES1	0.000	
22	 C41	12.405	52.731	85.026	C.2	1	RES1	0.000	
23	 C42	13.146	52.447	83.914	C.2	1	RES1	0.000	
24	 C43	13.059	51.192	83.268	C.2	1	RES1	0.000	
25	 C44	13.840	50.910	82.080	C.2	1	RES1	0.000	
26	 C45	13.492	50.315	80.869	C.2	1	RES1	0.000	
27	 C46	12.161	49.742	80.479	C.3	1	RES1	0.000	
28	 C47	15.620	50.714	80.433	C.2	1	RES1	0.000	
29	 C48	12.172	50.253	83.787	C.2	1	RES1	0.000	
30	 C49	11.397	50.556	84.926	C.2	1	RES1	0.000	
31	 C50	12.303	52.310	93.923	C.3	1	RES1	0.000	
32	 C51	13.288	51.525	93.060	C.3	1	RES1	0.000	
33	 C52	12.894	52.353	95.346	C.3	1	RES1	0.000	
34	 C53	10.977	51.540	93.983	C.3	1	RES1	0.000	
@<TRIPOS>BOND
1 1 25 ar
2 1 28 ar
3 2 12 2
4 3 14 2
5 7 14 1
6 7 15 1
7 7 18 1
8 8 19 1
9 8 20 1
10 9 26 ar
11 9 28 ar
12 10 11 1
13 11 12 1
14 6 12 1
15 6 13 1
16 13 14 1
17 13 31 1
18 15 16 1
19 4 16 1
20 16 17 1
21 17 18 1
22 18 19 1
23 5 19 2
24 20 21 1
25 21 22 ar
26 21 30 ar
27 22 23 ar
28 23 24 ar
29 24 25 1
30 24 29 ar
31 25 26 ar
32 26 27 1
33 29 30 ar
34 31 32 1
35 31 33 1
36 31 34 1
@<TRIPOS>SUBSTRUCTURE
1	RES1	1	GROUP	1 ****	RES
