# created with PyMOL 2.5.2
@<TRIPOS>MOLECULE
EGFR_4W9H_E3ligase
34 36 1                 
SMALL
USER_CHARGES
@<TRIPOS>ATOM
1	  S1	15.518	51.521	82.110	S.2	1	RES1	0.000	
2	  O2	12.334	56.332	94.647	O.2	1	RES1	0.000	
3	  O3	10.572	53.705	91.404	O.2	1	RES1	0.000	
4	  O4	14.145	56.657	90.236	O.3	1	RES1	0.000	
5	  O5	12.369	51.803	89.262	O.2	1	RES1	0.000	
6	  N9	11.009	54.530	93.972	N.pl3	1	RES1	0.000	
7	 N10	12.755	54.047	90.856	N.pl3	1	RES1	0.000	
8	 N11	11.212	53.045	87.700	N.pl3	1	RES1	0.000	
9	 N12	14.554	50.364	80.023	N.2	1	RES1	0.000	
10	 C29	9.088	56.903	94.141	C.3	1	RES1	0.000	
11	 C30	10.018	56.318	95.217	C.3	1	RES1	0.000	
12	 C31	11.246	55.743	94.625	C.2	1	RES1	0.000	
13	 C32	12.072	53.803	93.279	C.3	1	RES1	0.000	
14	 C33	11.709	53.847	91.783	C.2	1	RES1	0.000	
15	 C34	14.136	54.433	91.178	C.3	1	RES1	0.000	
16	 C35	14.574	55.282	90.022	C.3	1	RES1	0.000	
17	 C36	13.787	54.739	88.859	C.3	1	RES1	0.000	
18	 C37	12.498	54.217	89.428	C.3	1	RES1	0.000	
19	 C38	12.051	52.900	88.794	C.2	1	RES1	0.000	
20	 C39	10.700	51.917	86.944	C.3	1	RES1	0.000	
21	 C40	11.506	51.676	85.707	C.2	1	RES1	0.000	
22	 C41	11.465	50.463	85.005	C.2	1	RES1	0.000	
23	 C42	12.206	50.244	83.875	C.2	1	RES1	0.000	
24	 C43	13.053	51.247	83.386	C.2	1	RES1	0.000	
25	 C44	13.874	51.010	82.167	C.2	1	RES1	0.000	
26	 C45	13.520	50.436	80.952	C.2	1	RES1	0.000	
27	 C46	12.227	49.903	80.560	C.3	1	RES1	0.000	
28	 C47	15.628	50.892	80.522	C.2	1	RES1	0.000	
29	 C48	13.119	52.469	84.077	C.2	1	RES1	0.000	
30	 C49	12.356	52.679	85.194	C.2	1	RES1	0.000	
31	 C50	12.237	52.315	93.812	C.3	1	RES1	0.000	
32	 C51	13.336	51.602	93.029	C.3	1	RES1	0.000	
33	 C52	12.654	52.369	95.295	C.3	1	RES1	0.000	
34	 C53	10.928	51.495	93.702	C.3	1	RES1	0.000	
@<TRIPOS>BOND
1 1 25 ar
2 1 28 ar
3 2 12 2
4 3 14 2
5 7 14 1
6 7 15 1
7 7 18 1
8 8 19 1
9 8 20 1
10 9 26 ar
11 9 28 ar
12 10 11 1
13 11 12 1
14 6 12 1
15 6 13 1
16 13 14 1
17 13 31 1
18 15 16 1
19 4 16 1
20 16 17 1
21 17 18 1
22 18 19 1
23 5 19 2
24 20 21 1
25 21 22 ar
26 21 30 ar
27 22 23 ar
28 23 24 ar
29 24 25 1
30 24 29 ar
31 25 26 ar
32 26 27 1
33 29 30 ar
34 31 32 1
35 31 33 1
36 31 34 1
@<TRIPOS>SUBSTRUCTURE
1	RES1	1	GROUP	1 ****	RES
