# created with PyMOL 2.5.2
@<TRIPOS>MOLECULE
EGFR_4W9H_E3ligase
33 35 1                 
SMALL
USER_CHARGES
@<TRIPOS>ATOM
1	  S1	15.502	51.568	82.117	S.2	1	RES1	0.000	
2	  O3	12.310	56.341	94.695	O.2	1	RES1	0.000	
3	  O4	10.558	53.704	91.414	O.2	1	RES1	0.000	
4	  O5	14.209	56.602	90.208	O.3	1	RES1	0.000	
5	  O6	12.317	51.771	89.272	O.2	1	RES1	0.000	
6	 N10	11.020	54.581	93.965	N.pl3	1	RES1	0.000	
7	 N11	12.744	54.032	90.853	N.pl3	1	RES1	0.000	
8	 N12	11.184	53.019	87.723	N.pl3	1	RES1	0.000	
9	 N13	14.614	50.427	80.018	N.2	1	RES1	0.000	
10	 C30	9.994	56.351	95.268	C.3	1	RES1	0.000	
11	 C31	11.232	55.763	94.619	C.2	1	RES1	0.000	
12	 C32	12.070	53.810	93.270	C.3	1	RES1	0.000	
13	 C33	11.711	53.867	91.802	C.2	1	RES1	0.000	
14	 C34	14.136	54.390	91.178	C.3	1	RES1	0.000	
15	 C35	14.598	55.242	89.989	C.3	1	RES1	0.000	
16	 C36	13.835	54.649	88.810	C.3	1	RES1	0.000	
17	 C37	12.476	54.196	89.411	C.3	1	RES1	0.000	
18	 C38	12.019	52.874	88.804	C.2	1	RES1	0.000	
19	 C39	10.688	51.890	86.951	C.3	1	RES1	0.000	
20	 C40	11.510	51.659	85.712	C.2	1	RES1	0.000	
21	 C41	11.453	50.451	85.038	C.2	1	RES1	0.000	
22	 C42	12.202	50.224	83.881	C.2	1	RES1	0.000	
23	 C43	13.031	51.232	83.373	C.2	1	RES1	0.000	
24	 C44	13.861	51.022	82.152	C.2	1	RES1	0.000	
25	 C45	13.538	50.463	80.929	C.2	1	RES1	0.000	
26	 C46	12.246	49.877	80.472	C.3	1	RES1	0.000	
27	 C47	15.648	50.965	80.554	C.2	1	RES1	0.000	
28	 C48	13.088	52.446	84.055	C.2	1	RES1	0.000	
29	 C49	12.357	52.672	85.208	C.2	1	RES1	0.000	
30	 C50	12.253	52.362	93.824	C.3	1	RES1	0.000	
31	 C51	12.695	52.398	95.279	C.3	1	RES1	0.000	
32	 C52	13.319	51.613	93.028	C.3	1	RES1	0.000	
33	 C53	10.950	51.548	93.762	C.3	1	RES1	0.000	
@<TRIPOS>BOND
1 1 24 ar
2 1 27 ar
3 2 11 2
4 6 11 1
5 6 12 1
6 7 13 1
7 7 14 1
8 7 17 1
9 8 18 1
10 8 19 1
11 9 25 ar
12 9 27 ar
13 10 11 1
14 12 13 1
15 12 30 1
16 3 13 2
17 14 15 1
18 4 15 1
19 15 16 1
20 16 17 1
21 17 18 1
22 5 18 2
23 19 20 1
24 20 21 ar
25 20 29 ar
26 21 22 ar
27 22 23 ar
28 23 24 1
29 23 28 ar
30 24 25 ar
31 25 26 1
32 28 29 ar
33 30 31 1
34 30 32 1
35 30 33 1
@<TRIPOS>SUBSTRUCTURE
1	RES1	1	GROUP	1 ****	RES
