# created with PyMOL 2.5.2
@<TRIPOS>MOLECULE
BRD4_7BQU_E3ligase
19 21 1                 
SMALL
USER_CHARGES
@<TRIPOS>ATOM
1	  O3	27.401	17.241	11.940	O.2	1	RES1	0.000	
2	  O4	26.348	20.280	17.917	O.2	1	RES1	0.000	
3	  N5	25.422	17.722	13.136	N.2	1	RES1	0.000	
4	  O5	23.732	19.577	14.296	O.2	1	RES1	0.000	
5	  N6	25.059	19.869	16.074	N.pl3	1	RES1	0.000	
6	  O6	23.115	17.715	13.622	O.2	1	RES1	0.000	
7	 C15	25.545	15.492	10.253	C.2	1	RES1	0.000	
8	 C16	24.460	14.814	9.685	C.2	1	RES1	0.000	
9	 C17	23.173	14.961	10.192	C.2	1	RES1	0.000	
10	 C18	22.923	15.769	11.303	C.2	1	RES1	0.000	
11	 C19	24.032	16.458	11.851	C.2	1	RES1	0.000	
12	 C20	25.290	16.306	11.334	C.2	1	RES1	0.000	
13	 C21	26.197	17.124	12.136	C.2	1	RES1	0.000	
14	 C22	25.962	18.652	14.142	C.3	1	RES1	0.000	
15	 C23	26.866	17.981	15.181	C.3	1	RES1	0.000	
16	 C24	27.361	19.009	16.150	C.3	1	RES1	0.000	
17	 C25	26.224	19.750	16.815	C.2	1	RES1	0.000	
18	 C26	24.793	19.372	14.821	C.2	1	RES1	0.000	
19	 C27	24.093	17.361	12.989	C.2	1	RES1	0.000	
@<TRIPOS>BOND
1 7 8 ar
2 7 12 ar
3 8 9 ar
4 9 10 ar
5 10 11 ar
6 11 12 ar
7 11 19 ar
8 12 13 ar
9 1 13 2
10 3 13 ar
11 3 14 1
12 14 15 1
13 14 18 1
14 15 16 1
15 16 17 1
16 2 17 2
17 5 17 1
18 4 18 2
19 5 18 1
20 3 19 ar
21 6 19 2
@<TRIPOS>SUBSTRUCTURE
1	RES1	1	GROUP	1 ****	RES
