# created with PyMOL 2.5.2
@<TRIPOS>MOLECULE
BRD4_7BQU_E3ligase
19 21 1                 
SMALL
USER_CHARGES
@<TRIPOS>ATOM
1	  O3	27.399	17.233	11.949	O.2	1	RES1	0.000	
2	  O4	26.339	20.293	17.923	O.2	1	RES1	0.000	
3	  O5	23.726	19.596	14.277	O.2	1	RES1	0.000	
4	  N6	25.423	17.708	13.134	N.2	1	RES1	0.000	
5	  O6	23.121	17.713	13.635	O.2	1	RES1	0.000	
6	  N7	25.064	19.867	16.072	N.pl3	1	RES1	0.000	
7	 C19	25.540	15.494	10.253	C.2	1	RES1	0.000	
8	 C20	24.473	14.823	9.665	C.2	1	RES1	0.000	
9	 C21	23.176	14.971	10.175	C.2	1	RES1	0.000	
10	 C22	22.923	15.783	11.304	C.2	1	RES1	0.000	
11	 C23	24.027	16.439	11.855	C.2	1	RES1	0.000	
12	 C24	25.276	16.306	11.353	C.2	1	RES1	0.000	
13	 C25	26.194	17.112	12.160	C.2	1	RES1	0.000	
14	 C26	25.963	18.638	14.139	C.3	1	RES1	0.000	
15	 C27	26.847	17.976	15.182	C.3	1	RES1	0.000	
16	 C28	27.373	19.003	16.140	C.3	1	RES1	0.000	
17	 C29	26.233	19.766	16.812	C.2	1	RES1	0.000	
18	 C30	24.806	19.372	14.821	C.2	1	RES1	0.000	
19	 C31	24.092	17.360	12.990	C.2	1	RES1	0.000	
@<TRIPOS>BOND
1 7 8 ar
2 7 12 ar
3 8 9 ar
4 9 10 ar
5 10 11 ar
6 11 12 ar
7 11 19 ar
8 12 13 ar
9 1 13 2
10 4 13 ar
11 4 14 1
12 14 15 1
13 14 18 1
14 15 16 1
15 16 17 1
16 2 17 2
17 6 17 1
18 3 18 2
19 6 18 1
20 4 19 ar
21 5 19 2
@<TRIPOS>SUBSTRUCTURE
1	RES1	1	GROUP	1 ****	RES
