# created with PyMOL 2.5.2
@<TRIPOS>MOLECULE
EGFR_4W9H_E3ligase
33 35 1                 
SMALL
USER_CHARGES
@<TRIPOS>ATOM
1	  S1	15.477	51.387	82.170	S.2	1	RES1	0.000	
2	  O3	12.377	56.260	94.699	O.2	1	RES1	0.000	
3	  O4	10.631	53.626	91.449	O.2	1	RES1	0.000	
4	  O5	14.043	56.704	90.041	O.3	1	RES1	0.000	
5	  O6	12.323	51.787	89.184	O.2	1	RES1	0.000	
6	 N10	11.084	54.485	93.998	N.pl3	1	RES1	0.000	
7	 N11	12.796	54.079	90.910	N.pl3	1	RES1	0.000	
8	 N12	11.257	53.137	87.659	N.pl3	1	RES1	0.000	
9	 N13	14.570	50.242	80.070	N.2	1	RES1	0.000	
10	 C30	10.035	56.308	95.193	C.3	1	RES1	0.000	
11	 C31	11.298	55.685	94.635	C.2	1	RES1	0.000	
12	 C32	12.113	53.735	93.328	C.3	1	RES1	0.000	
13	 C33	11.789	53.808	91.819	C.2	1	RES1	0.000	
14	 C34	14.137	54.586	91.225	C.3	1	RES1	0.000	
15	 C35	14.558	55.369	89.966	C.3	1	RES1	0.000	
16	 C36	13.825	54.647	88.837	C.3	1	RES1	0.000	
17	 C37	12.527	54.165	89.472	C.3	1	RES1	0.000	
18	 C38	12.075	52.903	88.772	C.2	1	RES1	0.000	
19	 C39	10.662	52.080	86.894	C.3	1	RES1	0.000	
20	 C40	11.437	51.827	85.600	C.2	1	RES1	0.000	
21	 C41	12.307	52.784	85.115	C.2	1	RES1	0.000	
22	 C42	13.042	52.510	83.944	C.2	1	RES1	0.000	
23	 C43	12.964	51.272	83.309	C.2	1	RES1	0.000	
24	 C44	13.806	50.978	82.146	C.2	1	RES1	0.000	
25	 C45	13.506	50.371	80.925	C.2	1	RES1	0.000	
26	 C46	12.193	49.913	80.459	C.3	1	RES1	0.000	
27	 C47	15.669	50.727	80.615	C.2	1	RES1	0.000	
28	 C48	12.121	50.315	83.864	C.2	1	RES1	0.000	
29	 C49	11.352	50.558	84.999	C.2	1	RES1	0.000	
30	 C50	12.306	52.299	93.902	C.3	1	RES1	0.000	
31	 C51	12.815	52.389	95.348	C.3	1	RES1	0.000	
32	 C52	13.300	51.460	93.081	C.3	1	RES1	0.000	
33	 C53	10.967	51.575	93.940	C.3	1	RES1	0.000	
@<TRIPOS>BOND
1 1 24 ar
2 1 27 ar
3 2 11 2
4 6 11 1
5 6 12 1
6 7 13 1
7 7 14 1
8 7 17 1
9 8 18 1
10 8 19 1
11 9 25 ar
12 9 27 ar
13 10 11 1
14 12 13 1
15 12 30 1
16 3 13 2
17 14 15 1
18 4 15 1
19 15 16 1
20 16 17 1
21 17 18 1
22 5 18 2
23 19 20 1
24 20 21 ar
25 20 29 ar
26 21 22 ar
27 22 23 ar
28 23 24 1
29 23 28 ar
30 24 25 ar
31 25 26 1
32 28 29 ar
33 30 31 1
34 30 32 1
35 30 33 1
@<TRIPOS>SUBSTRUCTURE
1	RES1	1	GROUP	1 ****	RES
