# created with PyMOL 2.5.2
@<TRIPOS>MOLECULE
EGFR_4W9H_E3ligase
33 35 1                 
SMALL
USER_CHARGES
@<TRIPOS>ATOM
1	  S1	15.475	51.443	82.189	S.2	1	RES1	0.000	
2	  O3	12.451	56.270	94.712	O.2	1	RES1	0.000	
3	  O4	10.608	53.644	91.420	O.2	1	RES1	0.000	
4	  O5	14.148	56.685	90.040	O.3	1	RES1	0.000	
5	  O6	12.384	51.809	89.186	O.2	1	RES1	0.000	
6	 N10	11.079	54.546	94.027	N.pl3	1	RES1	0.000	
7	 N11	12.769	54.097	90.893	N.pl3	1	RES1	0.000	
8	 N12	11.181	53.079	87.705	N.pl3	1	RES1	0.000	
9	 N13	14.548	50.357	80.042	N.2	1	RES1	0.000	
10	 C31	10.138	56.339	95.266	C.3	1	RES1	0.000	
11	 C32	11.369	55.740	94.647	C.2	1	RES1	0.000	
12	 C33	12.130	53.765	93.280	C.3	1	RES1	0.000	
13	 C34	11.750	53.855	91.799	C.2	1	RES1	0.000	
14	 C35	14.123	54.565	91.160	C.3	1	RES1	0.000	
15	 C36	14.550	55.333	89.936	C.3	1	RES1	0.000	
16	 C37	13.771	54.662	88.773	C.3	1	RES1	0.000	
17	 C38	12.469	54.233	89.437	C.3	1	RES1	0.000	
18	 C39	11.998	52.904	88.810	C.2	1	RES1	0.000	
19	 C40	10.677	51.958	86.949	C.3	1	RES1	0.000	
20	 C41	11.490	51.685	85.728	C.2	1	RES1	0.000	
21	 C42	12.354	52.662	85.205	C.2	1	RES1	0.000	
22	 C43	13.100	52.435	84.035	C.2	1	RES1	0.000	
23	 C44	12.985	51.239	83.357	C.2	1	RES1	0.000	
24	 C45	13.817	50.994	82.153	C.2	1	RES1	0.000	
25	 C46	13.500	50.457	80.911	C.2	1	RES1	0.000	
26	 C47	12.183	49.987	80.453	C.3	1	RES1	0.000	
27	 C48	15.658	50.840	80.609	C.2	1	RES1	0.000	
28	 C49	12.125	50.247	83.886	C.2	1	RES1	0.000	
29	 C50	11.394	50.468	85.011	C.2	1	RES1	0.000	
30	 C51	12.250	52.286	93.847	C.3	1	RES1	0.000	
31	 C52	13.236	51.458	93.007	C.3	1	RES1	0.000	
32	 C53	12.784	52.342	95.283	C.3	1	RES1	0.000	
33	 C54	10.876	51.625	93.876	C.3	1	RES1	0.000	
@<TRIPOS>BOND
1 1 24 ar
2 1 27 ar
3 2 11 2
4 6 11 1
5 6 12 1
6 7 13 1
7 7 14 1
8 7 17 1
9 8 18 1
10 8 19 1
11 9 25 ar
12 9 27 ar
13 10 11 1
14 12 13 1
15 12 30 1
16 3 13 2
17 14 15 1
18 4 15 1
19 15 16 1
20 16 17 1
21 17 18 1
22 5 18 2
23 19 20 1
24 20 21 ar
25 20 29 ar
26 21 22 ar
27 22 23 ar
28 23 24 1
29 23 28 ar
30 24 25 ar
31 25 26 1
32 28 29 ar
33 30 31 1
34 30 32 1
35 30 33 1
@<TRIPOS>SUBSTRUCTURE
1	RES1	1	GROUP	1 ****	RES
