# created with PyMOL 2.5.2
@<TRIPOS>MOLECULE
EGFR_4W9H_E3ligase
33 35 1                 
SMALL
USER_CHARGES
@<TRIPOS>ATOM
1	  S1	15.542	51.501	82.162	S.2	1	RES1	0.000	
2	  O3	12.417	56.360	94.694	O.2	1	RES1	0.000	
3	  O4	10.531	53.709	91.502	O.2	1	RES1	0.000	
4	  O5	14.106	56.600	90.153	O.3	1	RES1	0.000	
5	  O6	12.481	51.700	89.046	O.2	1	RES1	0.000	
6	 N10	11.048	54.588	94.038	N.pl3	1	RES1	0.000	
7	 N11	12.720	54.005	90.882	N.pl3	1	RES1	0.000	
8	 N12	11.134	52.955	87.681	N.pl3	1	RES1	0.000	
9	 N13	14.657	50.406	80.033	N.2	1	RES1	0.000	
10	 C31	10.086	56.419	95.271	C.3	1	RES1	0.000	
11	 C32	11.304	55.816	94.655	C.2	1	RES1	0.000	
12	 C33	12.078	53.816	93.330	C.3	1	RES1	0.000	
13	 C34	11.694	53.862	91.842	C.2	1	RES1	0.000	
14	 C35	14.098	54.361	91.158	C.3	1	RES1	0.000	
15	 C36	14.510	55.248	89.972	C.3	1	RES1	0.000	
16	 C37	13.721	54.621	88.806	C.3	1	RES1	0.000	
17	 C38	12.436	54.118	89.461	C.3	1	RES1	0.000	
18	 C39	11.968	52.818	88.761	C.2	1	RES1	0.000	
19	 C40	10.647	51.862	86.906	C.3	1	RES1	0.000	
20	 C41	11.455	51.643	85.632	C.2	1	RES1	0.000	
21	 C42	12.284	52.691	85.166	C.2	1	RES1	0.000	
22	 C43	13.040	52.488	84.038	C.2	1	RES1	0.000	
23	 C44	13.026	51.282	83.330	C.2	1	RES1	0.000	
24	 C45	13.886	51.059	82.140	C.2	1	RES1	0.000	
25	 C46	13.598	50.499	80.923	C.2	1	RES1	0.000	
26	 C47	12.271	50.015	80.412	C.3	1	RES1	0.000	
27	 C48	15.735	50.896	80.597	C.2	1	RES1	0.000	
28	 C49	12.231	50.235	83.839	C.2	1	RES1	0.000	
29	 C50	11.443	50.428	84.972	C.2	1	RES1	0.000	
30	 C51	12.273	52.380	93.892	C.3	1	RES1	0.000	
31	 C52	13.318	51.556	93.126	C.3	1	RES1	0.000	
32	 C53	12.688	52.438	95.379	C.3	1	RES1	0.000	
33	 C54	10.947	51.639	93.831	C.3	1	RES1	0.000	
@<TRIPOS>BOND
1 1 24 ar
2 1 27 ar
3 2 11 2
4 6 11 1
5 6 12 1
6 7 13 1
7 7 14 1
8 7 17 1
9 8 18 1
10 8 19 1
11 9 25 ar
12 9 27 ar
13 10 11 1
14 12 13 1
15 12 30 1
16 3 13 2
17 14 15 1
18 4 15 1
19 15 16 1
20 16 17 1
21 17 18 1
22 5 18 2
23 19 20 1
24 20 21 ar
25 20 29 ar
26 21 22 ar
27 22 23 ar
28 23 24 1
29 23 28 ar
30 24 25 ar
31 25 26 1
32 28 29 ar
33 30 31 1
34 30 32 1
35 30 33 1
@<TRIPOS>SUBSTRUCTURE
1	RES1	1	GROUP	1 ****	RES
