# created with PyMOL 2.5.2
@<TRIPOS>MOLECULE
EGFR_5NVV_E3ligase
34 36 1                 
SMALL
USER_CHARGES
@<TRIPOS>ATOM
1	  S1	15.921	51.665	82.357	S.2	1	RES1	0.000	
2	  O4	10.570	57.522	96.070	O.3	1	RES1	0.000	
3	  O5	12.687	56.319	94.743	O.2	1	RES1	0.000	
4	  O6	10.985	53.631	91.620	O.2	1	RES1	0.000	
5	  O7	14.415	56.806	90.305	O.3	1	RES1	0.000	
6	  O8	12.628	51.914	89.405	O.2	1	RES1	0.000	
7	 N10	11.437	54.440	94.219	N.pl3	1	RES1	0.000	
8	 N11	13.145	54.128	91.062	N.pl3	1	RES1	0.000	
9	 N12	11.491	53.174	87.878	N.pl3	1	RES1	0.000	
10	 N13	14.989	50.590	80.226	N.2	1	RES1	0.000	
11	 C30	10.372	56.210	95.461	C.3	1	RES1	0.000	
12	 C31	11.646	55.689	94.784	C.2	1	RES1	0.000	
13	 C32	12.527	53.764	93.481	C.3	1	RES1	0.000	
14	 C33	12.142	53.851	91.983	C.2	1	RES1	0.000	
15	 C34	14.474	54.590	91.331	C.3	1	RES1	0.000	
16	 C35	14.847	55.465	90.103	C.3	1	RES1	0.000	
17	 C36	14.084	54.820	88.976	C.3	1	RES1	0.000	
18	 C37	12.783	54.280	89.621	C.3	1	RES1	0.000	
19	 C38	12.352	53.008	88.935	C.2	1	RES1	0.000	
20	 C39	10.968	52.058	87.101	C.3	1	RES1	0.000	
21	 C40	11.851	51.802	85.899	C.2	1	RES1	0.000	
22	 C41	11.803	50.568	85.216	C.2	1	RES1	0.000	
23	 C42	12.599	50.359	84.097	C.2	1	RES1	0.000	
24	 C43	13.462	51.345	83.631	C.2	1	RES1	0.000	
25	 C44	14.258	51.151	82.420	C.2	1	RES1	0.000	
26	 C45	13.959	50.583	81.155	C.2	1	RES1	0.000	
27	 C46	12.671	49.931	80.756	C.3	1	RES1	0.000	
28	 C47	16.043	51.134	80.750	C.2	1	RES1	0.000	
29	 C48	13.481	52.610	84.273	C.2	1	RES1	0.000	
30	 C49	12.679	52.797	85.403	C.2	1	RES1	0.000	
31	 C50	12.748	52.298	93.980	C.3	1	RES1	0.000	
32	 C51	13.359	52.309	95.392	C.3	1	RES1	0.000	
33	 C52	13.631	51.459	93.082	C.3	1	RES1	0.000	
34	 C53	11.344	51.591	94.101	C.3	1	RES1	0.000	
@<TRIPOS>BOND
1 1 25 ar
2 1 28 ar
3 7 12 1
4 7 13 1
5 8 14 1
6 8 15 1
7 8 18 1
8 9 19 1
9 9 20 1
10 10 26 ar
11 10 28 ar
12 2 11 1
13 11 12 1
14 3 12 2
15 13 14 1
16 13 31 1
17 4 14 2
18 15 16 1
19 5 16 1
20 16 17 1
21 17 18 1
22 18 19 1
23 6 19 2
24 20 21 1
25 21 22 ar
26 21 30 ar
27 22 23 ar
28 23 24 ar
29 24 25 1
30 24 29 ar
31 25 26 ar
32 26 27 1
33 29 30 ar
34 31 32 1
35 31 33 1
36 31 34 1
@<TRIPOS>SUBSTRUCTURE
1	RES1	1	GROUP	1 ****	RES
