# created with PyMOL 2.5.2
@<TRIPOS>MOLECULE
EGFR_5NVV_E3ligase
34 36 1                 
SMALL
USER_CHARGES
@<TRIPOS>ATOM
1	  S1	15.876	52.001	82.445	S.2	1	RES1	0.000	
2	  O4	10.544	57.698	95.854	O.3	1	RES1	0.000	
3	  O5	12.720	56.405	94.754	O.2	1	RES1	0.000	
4	  O6	10.739	53.793	91.805	O.2	1	RES1	0.000	
5	  O7	15.728	55.819	89.664	O.3	1	RES1	0.000	
6	  O8	12.825	51.936	89.349	O.2	1	RES1	0.000	
7	 N10	11.496	54.516	94.333	N.pl3	1	RES1	0.000	
8	 N11	12.866	54.195	91.022	N.pl3	1	RES1	0.000	
9	 N12	11.294	52.901	87.942	N.pl3	1	RES1	0.000	
10	 N13	15.111	50.830	80.311	N.2	1	RES1	0.000	
11	 C30	10.498	56.274	95.658	C.3	1	RES1	0.000	
12	 C31	11.705	55.743	94.895	C.2	1	RES1	0.000	
13	 C32	12.476	53.831	93.495	C.3	1	RES1	0.000	
14	 C33	11.936	53.931	92.072	C.2	1	RES1	0.000	
15	 C34	14.223	54.691	91.183	C.3	1	RES1	0.000	
16	 C35	14.770	54.779	89.768	C.3	1	RES1	0.000	
17	 C36	13.547	55.099	88.942	C.3	1	RES1	0.000	
18	 C37	12.424	54.299	89.637	C.3	1	RES1	0.000	
19	 C38	12.246	52.914	88.937	C.2	1	RES1	0.000	
20	 C39	10.985	51.694	87.202	C.3	1	RES1	0.000	
21	 C40	11.811	51.598	85.947	C.2	1	RES1	0.000	
22	 C41	12.505	52.734	85.459	C.2	1	RES1	0.000	
23	 C42	13.283	52.639	84.322	C.2	1	RES1	0.000	
24	 C43	13.434	51.437	83.634	C.2	1	RES1	0.000	
25	 C44	14.289	51.326	82.451	C.2	1	RES1	0.000	
26	 C45	14.054	50.713	81.224	C.2	1	RES1	0.000	
27	 C46	12.877	49.969	80.778	C.3	1	RES1	0.000	
28	 C47	16.093	51.488	80.841	C.2	1	RES1	0.000	
29	 C48	12.773	50.302	84.134	C.2	1	RES1	0.000	
30	 C49	11.974	50.414	85.274	C.2	1	RES1	0.000	
31	 C50	12.755	52.343	93.983	C.3	1	RES1	0.000	
32	 C51	13.531	52.373	95.295	C.3	1	RES1	0.000	
33	 C52	13.538	51.515	92.955	C.3	1	RES1	0.000	
34	 C53	11.426	51.666	94.264	C.3	1	RES1	0.000	
@<TRIPOS>BOND
1 1 25 ar
2 1 28 ar
3 7 12 1
4 7 13 1
5 8 14 1
6 8 15 1
7 8 18 1
8 9 19 1
9 9 20 1
10 10 26 ar
11 10 28 ar
12 2 11 1
13 11 12 1
14 3 12 2
15 13 14 1
16 13 31 1
17 4 14 2
18 15 16 1
19 5 16 1
20 16 17 1
21 17 18 1
22 18 19 1
23 6 19 2
24 20 21 1
25 21 22 ar
26 21 30 ar
27 22 23 ar
28 23 24 ar
29 24 25 1
30 24 29 ar
31 25 26 ar
32 26 27 1
33 29 30 ar
34 31 32 1
35 31 33 1
36 31 34 1
@<TRIPOS>SUBSTRUCTURE
1	RES1	1	GROUP	1 ****	RES
