# created with PyMOL 2.5.2
@<TRIPOS>MOLECULE
EGFR_4W9H_E3ligase
35 37 1                 
SMALL
USER_CHARGES
@<TRIPOS>ATOM
1	  S1	15.572	51.391	82.005	S.2	1	RES1	0.000	
2	  O2	12.174	56.391	94.715	O.2	1	RES1	0.000	
3	  O3	10.459	53.736	91.548	O.2	1	RES1	0.000	
4	  O4	14.130	56.636	90.369	O.3	1	RES1	0.000	
5	  O5	12.406	51.873	89.153	O.2	1	RES1	0.000	
6	  N9	10.992	54.531	94.092	N.pl3	1	RES1	0.000	
7	 N10	12.643	54.073	90.902	N.pl3	1	RES1	0.000	
8	 N11	11.276	53.091	87.602	N.pl3	1	RES1	0.000	
9	 N12	14.584	50.346	79.898	N.2	1	RES1	0.000	
10	 C29	10.164	57.139	96.585	C.3	1	RES1	0.000	
11	 C30	9.886	56.197	95.410	C.3	1	RES1	0.000	
12	 C31	11.134	55.749	94.716	C.2	1	RES1	0.000	
13	 C32	12.050	53.817	93.378	C.3	1	RES1	0.000	
14	 C33	11.638	53.862	91.895	C.2	1	RES1	0.000	
15	 C34	13.992	54.386	91.284	C.3	1	RES1	0.000	
16	 C35	14.498	55.272	90.170	C.3	1	RES1	0.000	
17	 C36	13.801	54.709	88.942	C.3	1	RES1	0.000	
18	 C37	12.441	54.255	89.463	C.3	1	RES1	0.000	
19	 C38	12.073	52.944	88.713	C.2	1	RES1	0.000	
20	 C39	10.759	51.991	86.843	C.3	1	RES1	0.000	
21	 C40	9.298	52.226	86.496	C.3	1	RES1	0.000	
22	 C41	11.587	51.725	85.602	C.2	1	RES1	0.000	
23	 C42	12.471	52.687	85.085	C.2	1	RES1	0.000	
24	 C43	13.215	52.409	83.947	C.2	1	RES1	0.000	
25	 C44	13.115	51.178	83.260	C.2	1	RES1	0.000	
26	 C45	13.894	50.934	82.047	C.2	1	RES1	0.000	
27	 C46	13.557	50.390	80.833	C.2	1	RES1	0.000	
28	 C47	12.249	49.831	80.433	C.3	1	RES1	0.000	
29	 C48	15.688	50.821	80.419	C.2	1	RES1	0.000	
30	 C49	12.213	50.249	83.762	C.2	1	RES1	0.000	
31	 C50	11.465	50.501	84.900	C.2	1	RES1	0.000	
32	 C51	12.283	52.378	93.905	C.3	1	RES1	0.000	
33	 C52	11.058	51.494	93.656	C.3	1	RES1	0.000	
34	 C53	13.464	51.755	93.138	C.3	1	RES1	0.000	
35	 C54	12.623	52.357	95.407	C.3	1	RES1	0.000	
@<TRIPOS>BOND
1 1 26 ar
2 1 29 ar
3 2 12 2
4 3 14 2
5 7 14 1
6 7 15 1
7 7 18 1
8 8 19 1
9 8 20 1
10 9 27 ar
11 9 29 ar
12 10 11 1
13 11 12 1
14 6 12 1
15 6 13 1
16 13 14 1
17 13 32 1
18 15 16 1
19 4 16 1
20 16 17 1
21 17 18 1
22 18 19 1
23 5 19 2
24 20 21 1
25 20 22 1
26 22 23 ar
27 22 31 ar
28 23 24 ar
29 24 25 ar
30 25 26 1
31 25 30 ar
32 26 27 ar
33 27 28 1
34 30 31 ar
35 32 33 1
36 32 34 1
37 32 35 1
@<TRIPOS>SUBSTRUCTURE
1	RES1	1	GROUP	1 ****	RES
