# created with PyMOL 2.5.2
@<TRIPOS>MOLECULE
EGFR_4W9H_E3ligase
35 37 1                 
SMALL
USER_CHARGES
@<TRIPOS>ATOM
1	  S1	15.605	51.425	81.999	S.2	1	RES1	0.000	
2	  O2	12.217	56.397	94.649	O.2	1	RES1	0.000	
3	  O3	10.419	53.692	91.595	O.2	1	RES1	0.000	
4	  O4	14.121	56.593	90.363	O.3	1	RES1	0.000	
5	  O5	12.289	51.813	89.206	O.2	1	RES1	0.000	
6	  N9	10.996	54.540	94.077	N.pl3	1	RES1	0.000	
7	 N10	12.571	54.061	90.906	N.pl3	1	RES1	0.000	
8	 N11	11.254	53.099	87.594	N.pl3	1	RES1	0.000	
9	 N12	14.586	50.288	79.911	N.2	1	RES1	0.000	
10	 C29	9.585	55.324	96.589	C.3	1	RES1	0.000	
11	 C30	9.925	56.246	95.416	C.3	1	RES1	0.000	
12	 C31	11.180	55.765	94.684	C.2	1	RES1	0.000	
13	 C32	12.041	53.845	93.359	C.3	1	RES1	0.000	
14	 C33	11.604	53.851	91.894	C.2	1	RES1	0.000	
15	 C34	13.960	54.345	91.252	C.3	1	RES1	0.000	
16	 C35	14.490	55.218	90.159	C.3	1	RES1	0.000	
17	 C36	13.750	54.686	88.945	C.3	1	RES1	0.000	
18	 C37	12.410	54.210	89.487	C.3	1	RES1	0.000	
19	 C38	12.032	52.896	88.734	C.2	1	RES1	0.000	
20	 C39	10.733	51.982	86.826	C.3	1	RES1	0.000	
21	 C40	9.281	52.227	86.439	C.3	1	RES1	0.000	
22	 C41	11.609	51.741	85.571	C.2	1	RES1	0.000	
23	 C42	11.522	50.518	84.923	C.2	1	RES1	0.000	
24	 C43	12.276	50.271	83.790	C.2	1	RES1	0.000	
25	 C44	13.145	51.243	83.276	C.2	1	RES1	0.000	
26	 C45	13.932	50.986	82.081	C.2	1	RES1	0.000	
27	 C46	13.556	50.386	80.839	C.2	1	RES1	0.000	
28	 C47	12.218	49.888	80.468	C.3	1	RES1	0.000	
29	 C48	15.706	50.779	80.403	C.2	1	RES1	0.000	
30	 C49	13.211	52.463	83.931	C.2	1	RES1	0.000	
31	 C50	12.444	52.714	85.062	C.2	1	RES1	0.000	
32	 C51	12.325	52.399	93.917	C.3	1	RES1	0.000	
33	 C52	11.107	51.510	93.800	C.3	1	RES1	0.000	
34	 C53	13.452	51.766	93.141	C.3	1	RES1	0.000	
35	 C54	12.709	52.419	95.429	C.3	1	RES1	0.000	
@<TRIPOS>BOND
1 1 26 ar
2 1 29 ar
3 2 12 2
4 3 14 2
5 7 14 1
6 7 15 1
7 7 18 1
8 8 19 1
9 8 20 1
10 9 27 ar
11 9 29 ar
12 10 11 1
13 11 12 1
14 6 12 1
15 6 13 1
16 13 14 1
17 13 32 1
18 15 16 1
19 4 16 1
20 16 17 1
21 17 18 1
22 18 19 1
23 5 19 2
24 20 21 1
25 20 22 1
26 22 23 ar
27 22 31 ar
28 23 24 ar
29 24 25 ar
30 25 26 1
31 25 30 ar
32 26 27 ar
33 27 28 1
34 30 31 ar
35 32 33 1
36 32 34 1
37 32 35 1
@<TRIPOS>SUBSTRUCTURE
1	RES1	1	GROUP	1 ****	RES
