# created with PyMOL 2.5.2
@<TRIPOS>MOLECULE
EGFR_4W9H_E3ligase
35 37 1                 
SMALL
USER_CHARGES
@<TRIPOS>ATOM
1	  S1	15.596	51.380	82.000	S.2	1	RES1	0.000	
2	  O2	12.160	56.392	94.706	O.2	1	RES1	0.000	
3	  O3	10.474	53.663	91.542	O.2	1	RES1	0.000	
4	  O4	14.072	56.638	90.370	O.3	1	RES1	0.000	
5	  O5	12.387	51.829	89.181	O.2	1	RES1	0.000	
6	  N9	10.965	54.504	94.055	N.pl3	1	RES1	0.000	
7	 N10	12.646	54.070	90.917	N.pl3	1	RES1	0.000	
8	 N11	11.295	53.122	87.635	N.pl3	1	RES1	0.000	
9	 N12	14.525	50.273	79.898	N.2	1	RES1	0.000	
10	 C29	10.089	57.148	96.532	C.3	1	RES1	0.000	
11	 C30	9.844	56.222	95.363	C.3	1	RES1	0.000	
12	 C31	11.123	55.756	94.665	C.2	1	RES1	0.000	
13	 C32	12.060	53.816	93.375	C.3	1	RES1	0.000	
14	 C33	11.655	53.836	91.899	C.2	1	RES1	0.000	
15	 C34	14.017	54.383	91.287	C.3	1	RES1	0.000	
16	 C35	14.499	55.291	90.146	C.3	1	RES1	0.000	
17	 C36	13.782	54.734	88.940	C.3	1	RES1	0.000	
18	 C37	12.438	54.227	89.477	C.3	1	RES1	0.000	
19	 C38	12.081	52.941	88.725	C.2	1	RES1	0.000	
20	 C39	10.763	52.001	86.837	C.3	1	RES1	0.000	
21	 C40	9.299	52.266	86.486	C.3	1	RES1	0.000	
22	 C41	11.597	51.738	85.589	C.2	1	RES1	0.000	
23	 C42	12.486	52.696	85.078	C.2	1	RES1	0.000	
24	 C43	13.254	52.441	83.945	C.2	1	RES1	0.000	
25	 C44	13.117	51.223	83.280	C.2	1	RES1	0.000	
26	 C45	13.929	50.942	82.055	C.2	1	RES1	0.000	
27	 C46	13.529	50.381	80.846	C.2	1	RES1	0.000	
28	 C47	12.194	49.937	80.444	C.3	1	RES1	0.000	
29	 C48	15.665	50.742	80.389	C.2	1	RES1	0.000	
30	 C49	12.274	50.281	83.760	C.2	1	RES1	0.000	
31	 C50	11.502	50.533	84.920	C.2	1	RES1	0.000	
32	 C51	12.290	52.382	93.913	C.3	1	RES1	0.000	
33	 C52	11.081	51.478	93.636	C.3	1	RES1	0.000	
34	 C53	13.518	51.758	93.178	C.3	1	RES1	0.000	
35	 C54	12.574	52.346	95.432	C.3	1	RES1	0.000	
@<TRIPOS>BOND
1 1 26 ar
2 1 29 ar
3 2 12 2
4 3 14 2
5 7 14 1
6 7 15 1
7 7 18 1
8 8 19 1
9 8 20 1
10 9 27 ar
11 9 29 ar
12 10 11 1
13 11 12 1
14 6 12 1
15 6 13 1
16 13 14 1
17 13 32 1
18 15 16 1
19 4 16 1
20 16 17 1
21 17 18 1
22 18 19 1
23 5 19 2
24 20 21 1
25 20 22 1
26 22 23 ar
27 22 31 ar
28 23 24 ar
29 24 25 ar
30 25 26 1
31 25 30 ar
32 26 27 ar
33 27 28 1
34 30 31 ar
35 32 33 1
36 32 34 1
37 32 35 1
@<TRIPOS>SUBSTRUCTURE
1	RES1	1	GROUP	1 ****	RES
