# created with PyMOL 2.5.2
@<TRIPOS>MOLECULE
EGFR_4W9H_E3ligase
35 37 1                 
SMALL
USER_CHARGES
@<TRIPOS>ATOM
1	  S1	15.542	51.333	82.141	S.2	1	RES1	0.000	
2	  O2	12.381	56.243	94.712	O.2	1	RES1	0.000	
3	  O3	10.631	53.646	91.429	O.2	1	RES1	0.000	
4	  O4	14.102	56.718	90.102	O.3	1	RES1	0.000	
5	  O5	12.294	51.829	89.251	O.2	1	RES1	0.000	
6	  N9	11.088	54.500	94.012	N.pl3	1	RES1	0.000	
7	 N10	12.786	54.110	90.896	N.pl3	1	RES1	0.000	
8	 N11	11.207	53.102	87.697	N.pl3	1	RES1	0.000	
9	 N12	14.525	50.324	79.998	N.2	1	RES1	0.000	
10	 C29	9.060	56.675	94.122	C.3	1	RES1	0.000	
11	 C30	10.028	56.315	95.229	C.3	1	RES1	0.000	
12	 C31	11.301	55.718	94.647	C.2	1	RES1	0.000	
13	 C32	12.136	53.741	93.327	C.3	1	RES1	0.000	
14	 C33	11.777	53.823	91.828	C.2	1	RES1	0.000	
15	 C34	14.142	54.544	91.186	C.3	1	RES1	0.000	
16	 C35	14.546	55.374	89.954	C.3	1	RES1	0.000	
17	 C36	13.784	54.698	88.803	C.3	1	RES1	0.000	
18	 C37	12.481	54.210	89.448	C.3	1	RES1	0.000	
19	 C38	12.043	52.916	88.773	C.2	1	RES1	0.000	
20	 C39	10.657	51.995	86.916	C.3	1	RES1	0.000	
21	 C40	9.161	52.261	86.634	C.3	1	RES1	0.000	
22	 C41	11.467	51.800	85.631	C.2	1	RES1	0.000	
23	 C42	11.365	50.580	84.964	C.2	1	RES1	0.000	
24	 C43	12.096	50.282	83.823	C.2	1	RES1	0.000	
25	 C44	13.040	51.235	83.339	C.2	1	RES1	0.000	
26	 C45	13.829	50.969	82.170	C.2	1	RES1	0.000	
27	 C46	13.471	50.420	80.927	C.2	1	RES1	0.000	
28	 C47	12.162	49.901	80.507	C.3	1	RES1	0.000	
29	 C48	15.633	50.762	80.528	C.2	1	RES1	0.000	
30	 C49	13.148	52.461	84.019	C.2	1	RES1	0.000	
31	 C50	12.370	52.721	85.153	C.2	1	RES1	0.000	
32	 C51	12.295	52.299	93.878	C.3	1	RES1	0.000	
33	 C52	13.316	51.460	93.093	C.3	1	RES1	0.000	
34	 C53	12.776	52.383	95.331	C.3	1	RES1	0.000	
35	 C54	10.948	51.582	93.889	C.3	1	RES1	0.000	
@<TRIPOS>BOND
1 1 26 ar
2 1 29 ar
3 2 12 2
4 3 14 2
5 7 14 1
6 7 15 1
7 7 18 1
8 8 19 1
9 8 20 1
10 9 27 ar
11 9 29 ar
12 10 11 1
13 11 12 1
14 6 12 1
15 6 13 1
16 13 14 1
17 13 32 1
18 15 16 1
19 4 16 1
20 16 17 1
21 17 18 1
22 18 19 1
23 5 19 2
24 20 21 1
25 20 22 1
26 22 23 ar
27 22 31 ar
28 23 24 ar
29 24 25 ar
30 25 26 1
31 25 30 ar
32 26 27 ar
33 27 28 1
34 30 31 ar
35 32 33 1
36 32 34 1
37 32 35 1
@<TRIPOS>SUBSTRUCTURE
1	RES1	1	GROUP	1 ****	RES
