# created with PyMOL 2.5.2
@<TRIPOS>MOLECULE
SOS1_4W9H_E3ligase
34 36 1                 
SMALL
USER_CHARGES
@<TRIPOS>ATOM
1	  O1	12.534	56.323	94.626	O.2	1	RES1	0.000	
2	  S1	15.498	51.572	82.277	S.2	1	RES1	0.000	
3	  O2	10.556	53.758	91.455	O.2	1	RES1	0.000	
4	  O3	14.228	56.565	89.979	O.3	1	RES1	0.000	
5	  O4	12.330	51.727	89.259	O.2	1	RES1	0.000	
6	  N7	11.103	54.585	94.026	N.pl3	1	RES1	0.000	
7	  N8	12.744	54.052	90.835	N.pl3	1	RES1	0.000	
8	  N9	11.088	52.961	87.754	N.pl3	1	RES1	0.000	
9	 N10	14.639	50.495	80.087	N.2	1	RES1	0.000	
10	 C20	10.216	56.454	95.264	C.3	1	RES1	0.000	
11	 C21	11.433	55.783	94.625	C.2	1	RES1	0.000	
12	 C22	12.122	53.817	93.282	C.3	1	RES1	0.000	
13	 C23	11.724	53.878	91.787	C.2	1	RES1	0.000	
14	 C24	14.123	54.407	91.060	C.3	1	RES1	0.000	
15	 C25	14.548	55.190	89.818	C.3	1	RES1	0.000	
16	 C26	13.705	54.553	88.735	C.3	1	RES1	0.000	
17	 C27	12.423	54.149	89.414	C.3	1	RES1	0.000	
18	 C28	11.941	52.831	88.845	C.2	1	RES1	0.000	
19	 C29	10.578	51.822	86.990	C.3	1	RES1	0.000	
20	 C30	9.106	52.002	86.671	C.3	1	RES1	0.000	
21	 C31	11.434	51.628	85.748	C.2	1	RES1	0.000	
22	 C32	12.290	52.647	85.241	C.2	1	RES1	0.000	
23	 C33	13.042	52.448	84.111	C.2	1	RES1	0.000	
24	 C34	12.989	51.236	83.388	C.2	1	RES1	0.000	
25	 C35	13.827	51.052	82.217	C.2	1	RES1	0.000	
26	 C36	13.566	50.534	80.958	C.2	1	RES1	0.000	
27	 C37	12.247	50.000	80.452	C.3	1	RES1	0.000	
28	 C38	15.681	51.020	80.644	C.2	1	RES1	0.000	
29	 C39	12.166	50.234	83.887	C.2	1	RES1	0.000	
30	 C40	11.398	50.432	85.034	C.2	1	RES1	0.000	
31	 C41	12.279	52.358	93.812	C.3	1	RES1	0.000	
32	 C42	13.203	51.491	92.913	C.3	1	RES1	0.000	
33	 C43	12.830	52.335	95.253	C.3	1	RES1	0.000	
34	 C44	10.884	51.676	93.856	C.3	1	RES1	0.000	
@<TRIPOS>BOND
1 1 11 2
2 2 25 ar
3 2 28 ar
4 3 13 2
5 9 26 ar
6 9 28 ar
7 10 11 1
8 6 11 1
9 6 12 1
10 12 13 1
11 12 31 1
12 7 13 1
13 7 14 1
14 14 15 1
15 4 15 1
16 15 16 1
17 16 17 1
18 7 17 1
19 17 18 1
20 5 18 2
21 8 18 1
22 8 19 1
23 19 20 1
24 19 21 1
25 21 22 ar
26 21 30 ar
27 22 23 ar
28 23 24 ar
29 24 25 1
30 24 29 ar
31 25 26 ar
32 26 27 1
33 29 30 ar
34 31 32 1
35 31 33 1
36 31 34 1
@<TRIPOS>SUBSTRUCTURE
1	RES1	1	GROUP	1 ****	RES
