# created with PyMOL 2.5.2
@<TRIPOS>MOLECULE
BRD4_7BQU_E3ligase
19 21 1                 
SMALL
USER_CHARGES
@<TRIPOS>ATOM
1	  N3	25.407	17.696	13.143	N.2	1	RES1	0.000	
2	  N4	25.082	19.887	16.094	N.pl3	1	RES1	0.000	
3	  O5	27.382	17.210	11.974	O.2	1	RES1	0.000	
4	  O6	26.381	20.302	17.887	O.2	1	RES1	0.000	
5	  O7	23.715	19.595	14.312	O.2	1	RES1	0.000	
6	  O8	23.116	17.688	13.629	O.2	1	RES1	0.000	
7	 C24	25.555	15.492	10.256	C.2	1	RES1	0.000	
8	 C25	24.489	14.822	9.664	C.2	1	RES1	0.000	
9	 C26	23.183	14.966	10.179	C.2	1	RES1	0.000	
10	 C27	22.932	15.787	11.266	C.2	1	RES1	0.000	
11	 C28	24.016	16.439	11.839	C.2	1	RES1	0.000	
12	 C29	25.269	16.304	11.345	C.2	1	RES1	0.000	
13	 C30	26.198	17.120	12.174	C.2	1	RES1	0.000	
14	 C31	25.934	18.636	14.139	C.3	1	RES1	0.000	
15	 C32	26.844	17.970	15.183	C.3	1	RES1	0.000	
16	 C33	27.373	19.023	16.146	C.3	1	RES1	0.000	
17	 C34	26.254	19.765	16.800	C.2	1	RES1	0.000	
18	 C35	24.793	19.395	14.829	C.2	1	RES1	0.000	
19	 C36	24.070	17.355	12.979	C.2	1	RES1	0.000	
@<TRIPOS>BOND
1 1 13 ar
2 1 14 1
3 1 19 ar
4 7 8 ar
5 7 12 ar
6 8 9 ar
7 9 10 ar
8 10 11 ar
9 11 12 ar
10 11 19 ar
11 12 13 ar
12 3 13 2
13 14 15 1
14 14 18 1
15 15 16 1
16 16 17 1
17 2 17 1
18 4 17 2
19 2 18 1
20 5 18 2
21 6 19 2
@<TRIPOS>SUBSTRUCTURE
1	RES1	1	GROUP	1 ****	RES
