# created with PyMOL 2.5.2
@<TRIPOS>MOLECULE
SOS1_4W9H_E3ligase
34 36 1                 
SMALL
USER_CHARGES
@<TRIPOS>ATOM
1	  O1	12.484	56.385	94.646	O.2	1	RES1	0.000	
2	  S1	15.527	51.746	82.220	S.2	1	RES1	0.000	
3	  O2	10.392	53.790	91.586	O.2	1	RES1	0.000	
4	  O3	15.497	55.565	89.429	O.3	1	RES1	0.000	
5	  O4	12.355	51.829	89.292	O.2	1	RES1	0.000	
6	  N7	11.080	54.635	94.088	N.pl3	1	RES1	0.000	
7	  N8	12.481	54.145	90.832	N.pl3	1	RES1	0.000	
8	  N9	10.966	52.782	87.759	N.pl3	1	RES1	0.000	
9	 N10	14.630	50.694	80.044	N.2	1	RES1	0.000	
10	 C21	10.205	56.477	95.364	C.3	1	RES1	0.000	
11	 C22	11.385	55.855	94.677	C.2	1	RES1	0.000	
12	 C23	12.062	53.885	93.318	C.3	1	RES1	0.000	
13	 C24	11.575	53.941	91.841	C.2	1	RES1	0.000	
14	 C25	13.882	54.517	90.984	C.3	1	RES1	0.000	
15	 C26	14.445	54.597	89.586	C.3	1	RES1	0.000	
16	 C27	13.244	54.920	88.740	C.3	1	RES1	0.000	
17	 C28	12.079	54.205	89.423	C.3	1	RES1	0.000	
18	 C29	11.853	52.833	88.784	C.2	1	RES1	0.000	
19	 C30	10.639	51.557	87.023	C.3	1	RES1	0.000	
20	 C31	9.129	51.477	86.783	C.3	1	RES1	0.000	
21	 C32	11.467	51.507	85.773	C.2	1	RES1	0.000	
22	 C33	11.560	50.300	85.052	C.2	1	RES1	0.000	
23	 C34	12.324	50.210	83.925	C.2	1	RES1	0.000	
24	 C35	13.076	51.270	83.442	C.2	1	RES1	0.000	
25	 C36	13.905	51.155	82.231	C.2	1	RES1	0.000	
26	 C37	13.614	50.619	80.983	C.2	1	RES1	0.000	
27	 C38	12.330	49.983	80.539	C.3	1	RES1	0.000	
28	 C39	15.662	51.254	80.574	C.2	1	RES1	0.000	
29	 C40	12.983	52.487	84.123	C.2	1	RES1	0.000	
30	 C41	12.175	52.621	85.269	C.2	1	RES1	0.000	
31	 C42	12.312	52.444	93.885	C.3	1	RES1	0.000	
32	 C43	12.998	52.499	95.222	C.3	1	RES1	0.000	
33	 C44	13.215	51.600	92.933	C.3	1	RES1	0.000	
34	 C45	10.972	51.705	94.050	C.3	1	RES1	0.000	
@<TRIPOS>BOND
1 1 11 2
2 2 25 ar
3 2 28 ar
4 3 13 2
5 9 26 ar
6 9 28 ar
7 10 11 1
8 6 11 1
9 6 12 1
10 12 13 1
11 12 31 1
12 7 13 1
13 7 14 1
14 14 15 1
15 4 15 1
16 15 16 1
17 16 17 1
18 7 17 1
19 17 18 1
20 5 18 2
21 8 18 1
22 8 19 1
23 19 20 1
24 19 21 1
25 21 22 ar
26 21 30 ar
27 22 23 ar
28 23 24 ar
29 24 25 1
30 24 29 ar
31 25 26 ar
32 26 27 1
33 29 30 ar
34 31 32 1
35 31 33 1
36 31 34 1
@<TRIPOS>SUBSTRUCTURE
1	RES1	1	GROUP	1 ****	RES
