# created with PyMOL 2.5.2
@<TRIPOS>MOLECULE
SOS1_4W9H_E3ligase
34 36 1                 
SMALL
USER_CHARGES
@<TRIPOS>ATOM
1	  O1	12.418	56.242	94.690	O.2	1	RES1	0.000	
2	  S1	15.532	51.317	82.162	S.2	1	RES1	0.000	
3	  O2	10.639	53.641	91.445	O.2	1	RES1	0.000	
4	  O3	14.054	56.781	90.106	O.3	1	RES1	0.000	
5	  O4	12.347	51.827	89.268	O.2	1	RES1	0.000	
6	  N7	11.072	54.483	94.019	N.pl3	1	RES1	0.000	
7	  N8	12.801	54.107	90.899	N.pl3	1	RES1	0.000	
8	  N9	11.247	53.113	87.677	N.pl3	1	RES1	0.000	
9	 N10	14.532	50.218	80.036	N.2	1	RES1	0.000	
10	 C22	10.090	56.309	95.250	C.3	1	RES1	0.000	
11	 C23	11.332	55.684	94.638	C.2	1	RES1	0.000	
12	 C24	12.127	53.745	93.315	C.3	1	RES1	0.000	
13	 C25	11.781	53.818	91.814	C.2	1	RES1	0.000	
14	 C26	14.131	54.608	91.187	C.3	1	RES1	0.000	
15	 C27	14.518	55.439	89.967	C.3	1	RES1	0.000	
16	 C28	13.799	54.740	88.824	C.3	1	RES1	0.000	
17	 C29	12.510	54.216	89.459	C.3	1	RES1	0.000	
18	 C30	12.086	52.921	88.771	C.2	1	RES1	0.000	
19	 C31	10.672	51.981	86.950	C.3	1	RES1	0.000	
20	 C32	9.173	52.178	86.699	C.3	1	RES1	0.000	
21	 C33	11.483	51.749	85.673	C.2	1	RES1	0.000	
22	 C34	12.332	52.762	85.152	C.2	1	RES1	0.000	
23	 C35	13.053	52.490	83.976	C.2	1	RES1	0.000	
24	 C36	12.997	51.293	83.304	C.2	1	RES1	0.000	
25	 C37	13.806	51.009	82.132	C.2	1	RES1	0.000	
26	 C38	13.482	50.403	80.903	C.2	1	RES1	0.000	
27	 C39	12.125	50.017	80.434	C.3	1	RES1	0.000	
28	 C40	15.645	50.678	80.574	C.2	1	RES1	0.000	
29	 C41	12.165	50.277	83.849	C.2	1	RES1	0.000	
30	 C42	11.417	50.511	85.006	C.2	1	RES1	0.000	
31	 C43	12.274	52.280	93.867	C.3	1	RES1	0.000	
32	 C44	13.253	51.436	93.065	C.3	1	RES1	0.000	
33	 C45	12.741	52.336	95.348	C.3	1	RES1	0.000	
34	 C46	10.910	51.574	93.864	C.3	1	RES1	0.000	
@<TRIPOS>BOND
1 1 11 2
2 2 25 ar
3 2 28 ar
4 3 13 2
5 9 26 ar
6 9 28 ar
7 10 11 1
8 6 11 1
9 6 12 1
10 12 13 1
11 12 31 1
12 7 13 1
13 7 14 1
14 14 15 1
15 4 15 1
16 15 16 1
17 16 17 1
18 7 17 1
19 17 18 1
20 5 18 2
21 8 18 1
22 8 19 1
23 19 20 1
24 19 21 1
25 21 22 ar
26 21 30 ar
27 22 23 ar
28 23 24 ar
29 24 25 1
30 24 29 ar
31 25 26 ar
32 26 27 1
33 29 30 ar
34 31 32 1
35 31 33 1
36 31 34 1
@<TRIPOS>SUBSTRUCTURE
1	RES1	1	GROUP	1 ****	RES
