# created with PyMOL 2.5.2
@<TRIPOS>MOLECULE
SOS1_4W9H_E3ligase
34 36 1                 
SMALL
USER_CHARGES
@<TRIPOS>ATOM
1	  O1	12.443	56.235	94.716	O.2	1	RES1	0.000	
2	  S1	15.489	51.466	82.154	S.2	1	RES1	0.000	
3	  O2	10.644	53.641	91.428	O.2	1	RES1	0.000	
4	  O3	14.119	56.713	90.098	O.3	1	RES1	0.000	
5	  O4	12.340	51.856	89.241	O.2	1	RES1	0.000	
6	  N7	11.093	54.505	94.020	N.pl3	1	RES1	0.000	
7	  N8	12.795	54.095	90.870	N.pl3	1	RES1	0.000	
8	  N9	11.164	53.079	87.662	N.pl3	1	RES1	0.000	
9	 N10	14.570	50.296	80.043	N.2	1	RES1	0.000	
10	 C23	10.130	56.374	95.262	C.3	1	RES1	0.000	
11	 C24	11.341	55.715	94.647	C.2	1	RES1	0.000	
12	 C25	12.134	53.753	93.321	C.3	1	RES1	0.000	
13	 C26	11.759	53.841	91.792	C.2	1	RES1	0.000	
14	 C27	14.170	54.531	91.173	C.3	1	RES1	0.000	
15	 C28	14.554	55.357	89.949	C.3	1	RES1	0.000	
16	 C29	13.782	54.696	88.823	C.3	1	RES1	0.000	
17	 C30	12.467	54.228	89.436	C.3	1	RES1	0.000	
18	 C31	12.035	52.954	88.757	C.2	1	RES1	0.000	
19	 C32	10.645	51.952	86.937	C.3	1	RES1	0.000	
20	 C33	9.159	52.164	86.652	C.3	1	RES1	0.000	
21	 C34	11.464	51.743	85.696	C.2	1	RES1	0.000	
22	 C35	12.314	52.726	85.149	C.2	1	RES1	0.000	
23	 C36	13.062	52.461	84.000	C.2	1	RES1	0.000	
24	 C37	12.988	51.235	83.339	C.2	1	RES1	0.000	
25	 C38	13.811	50.982	82.162	C.2	1	RES1	0.000	
26	 C39	13.509	50.405	80.926	C.2	1	RES1	0.000	
27	 C40	12.185	49.910	80.450	C.3	1	RES1	0.000	
28	 C41	15.644	50.826	80.606	C.2	1	RES1	0.000	
29	 C42	12.161	50.254	83.901	C.2	1	RES1	0.000	
30	 C43	11.415	50.502	85.036	C.2	1	RES1	0.000	
31	 C44	12.265	52.307	93.862	C.3	1	RES1	0.000	
32	 C45	12.784	52.316	95.306	C.3	1	RES1	0.000	
33	 C46	13.207	51.427	93.008	C.3	1	RES1	0.000	
34	 C47	10.888	51.621	93.857	C.3	1	RES1	0.000	
@<TRIPOS>BOND
1 1 11 2
2 2 25 ar
3 2 28 ar
4 3 13 2
5 9 26 ar
6 9 28 ar
7 10 11 1
8 6 11 1
9 6 12 1
10 12 13 1
11 12 31 1
12 7 13 1
13 7 14 1
14 14 15 1
15 4 15 1
16 15 16 1
17 16 17 1
18 7 17 1
19 17 18 1
20 5 18 2
21 8 18 1
22 8 19 1
23 19 20 1
24 19 21 1
25 21 22 ar
26 21 30 ar
27 22 23 ar
28 23 24 ar
29 24 25 1
30 24 29 ar
31 25 26 ar
32 26 27 1
33 29 30 ar
34 31 32 1
35 31 33 1
36 31 34 1
@<TRIPOS>SUBSTRUCTURE
1	RES1	1	GROUP	1 ****	RES
