# created with PyMOL 2.5.2
@<TRIPOS>MOLECULE
SOS1_4W9H_E3ligase
34 36 1                 
SMALL
USER_CHARGES
@<TRIPOS>ATOM
1	  O1	12.467	56.266	94.656	O.2	1	RES1	0.000	
2	  S1	15.472	51.473	82.216	S.2	1	RES1	0.000	
3	  O2	10.592	53.639	91.433	O.2	1	RES1	0.000	
4	  O3	14.137	56.664	90.028	O.3	1	RES1	0.000	
5	  O4	12.366	51.808	89.209	O.2	1	RES1	0.000	
6	  N7	11.084	54.535	93.997	N.pl3	1	RES1	0.000	
7	  N8	12.766	54.085	90.869	N.pl3	1	RES1	0.000	
8	  N9	11.160	53.104	87.703	N.pl3	1	RES1	0.000	
9	 N10	14.576	50.387	80.050	N.2	1	RES1	0.000	
10	 C23	10.140	56.392	95.213	C.3	1	RES1	0.000	
11	 C24	11.367	55.747	94.621	C.2	1	RES1	0.000	
12	 C25	12.124	53.758	93.272	C.3	1	RES1	0.000	
13	 C26	11.726	53.846	91.803	C.2	1	RES1	0.000	
14	 C27	14.118	54.475	91.161	C.3	1	RES1	0.000	
15	 C28	14.561	55.287	89.933	C.3	1	RES1	0.000	
16	 C29	13.803	54.624	88.804	C.3	1	RES1	0.000	
17	 C30	12.476	54.219	89.452	C.3	1	RES1	0.000	
18	 C31	12.007	52.884	88.809	C.2	1	RES1	0.000	
19	 C32	10.624	51.980	86.961	C.3	1	RES1	0.000	
20	 C33	9.143	52.185	86.654	C.3	1	RES1	0.000	
21	 C34	11.445	51.750	85.695	C.2	1	RES1	0.000	
22	 C35	12.307	52.732	85.184	C.2	1	RES1	0.000	
23	 C36	13.041	52.494	84.027	C.2	1	RES1	0.000	
24	 C37	12.973	51.273	83.360	C.2	1	RES1	0.000	
25	 C38	13.807	50.999	82.195	C.2	1	RES1	0.000	
26	 C39	13.522	50.436	80.970	C.2	1	RES1	0.000	
27	 C40	12.232	49.824	80.545	C.3	1	RES1	0.000	
28	 C41	15.659	50.888	80.612	C.2	1	RES1	0.000	
29	 C42	12.159	50.283	83.921	C.2	1	RES1	0.000	
30	 C43	11.395	50.503	85.069	C.2	1	RES1	0.000	
31	 C44	12.275	52.280	93.831	C.3	1	RES1	0.000	
32	 C45	12.856	52.312	95.234	C.3	1	RES1	0.000	
33	 C46	13.220	51.447	92.942	C.3	1	RES1	0.000	
34	 C47	10.909	51.615	93.858	C.3	1	RES1	0.000	
@<TRIPOS>BOND
1 1 11 2
2 2 25 ar
3 2 28 ar
4 3 13 2
5 9 26 ar
6 9 28 ar
7 10 11 1
8 6 11 1
9 6 12 1
10 12 13 1
11 12 31 1
12 7 13 1
13 7 14 1
14 14 15 1
15 4 15 1
16 15 16 1
17 16 17 1
18 7 17 1
19 17 18 1
20 5 18 2
21 8 18 1
22 8 19 1
23 19 20 1
24 19 21 1
25 21 22 ar
26 21 30 ar
27 22 23 ar
28 23 24 ar
29 24 25 1
30 24 29 ar
31 25 26 ar
32 26 27 1
33 29 30 ar
34 31 32 1
35 31 33 1
36 31 34 1
@<TRIPOS>SUBSTRUCTURE
1	RES1	1	GROUP	1 ****	RES
