# created with PyMOL 2.5.2
@<TRIPOS>MOLECULE
SOS1_4W9H_E3ligase
34 36 1                 
SMALL
USER_CHARGES
@<TRIPOS>ATOM
1	  O1	12.390	56.233	94.742	O.2	1	RES1	0.000	
2	  S1	15.502	51.368	82.090	S.2	1	RES1	0.000	
3	  O2	10.616	53.630	91.416	O.2	1	RES1	0.000	
4	  O3	14.093	56.794	90.162	O.3	1	RES1	0.000	
5	  O4	12.369	51.870	89.268	O.2	1	RES1	0.000	
6	  N7	11.051	54.479	94.015	N.pl3	1	RES1	0.000	
7	  N8	12.800	54.141	90.916	N.pl3	1	RES1	0.000	
8	  N9	11.252	53.092	87.682	N.pl3	1	RES1	0.000	
9	 N10	14.489	50.257	80.036	N.2	1	RES1	0.000	
10	 C24	10.077	56.308	95.261	C.3	1	RES1	0.000	
11	 C25	11.293	55.679	94.653	C.2	1	RES1	0.000	
12	 C26	12.102	53.757	93.312	C.3	1	RES1	0.000	
13	 C27	11.778	53.837	91.807	C.2	1	RES1	0.000	
14	 C28	14.149	54.584	91.201	C.3	1	RES1	0.000	
15	 C29	14.561	55.420	89.994	C.3	1	RES1	0.000	
16	 C30	13.820	54.776	88.850	C.3	1	RES1	0.000	
17	 C31	12.492	54.268	89.457	C.3	1	RES1	0.000	
18	 C32	12.078	52.951	88.763	C.2	1	RES1	0.000	
19	 C33	10.703	51.993	86.923	C.3	1	RES1	0.000	
20	 C34	9.175	52.164	86.715	C.3	1	RES1	0.000	
21	 C35	11.476	51.765	85.655	C.2	1	RES1	0.000	
22	 C36	11.371	50.537	84.979	C.2	1	RES1	0.000	
23	 C37	12.137	50.284	83.819	C.2	1	RES1	0.000	
24	 C38	13.029	51.226	83.354	C.2	1	RES1	0.000	
25	 C39	13.845	50.952	82.148	C.2	1	RES1	0.000	
26	 C40	13.466	50.387	80.923	C.2	1	RES1	0.000	
27	 C41	12.135	49.903	80.519	C.3	1	RES1	0.000	
28	 C42	15.604	50.730	80.518	C.2	1	RES1	0.000	
29	 C43	13.121	52.454	84.005	C.2	1	RES1	0.000	
30	 C44	12.341	52.722	85.150	C.2	1	RES1	0.000	
31	 C45	12.277	52.273	93.859	C.3	1	RES1	0.000	
32	 C46	13.244	51.458	92.986	C.3	1	RES1	0.000	
33	 C47	12.786	52.305	95.301	C.3	1	RES1	0.000	
34	 C48	10.923	51.569	93.853	C.3	1	RES1	0.000	
@<TRIPOS>BOND
1 1 11 2
2 2 25 ar
3 2 28 ar
4 3 13 2
5 9 26 ar
6 9 28 ar
7 10 11 1
8 6 11 1
9 6 12 1
10 12 13 1
11 12 31 1
12 7 13 1
13 7 14 1
14 14 15 1
15 4 15 1
16 15 16 1
17 16 17 1
18 7 17 1
19 17 18 1
20 5 18 2
21 8 18 1
22 8 19 1
23 19 20 1
24 19 21 1
25 21 22 ar
26 21 30 ar
27 22 23 ar
28 23 24 ar
29 24 25 1
30 24 29 ar
31 25 26 ar
32 26 27 1
33 29 30 ar
34 31 32 1
35 31 33 1
36 31 34 1
@<TRIPOS>SUBSTRUCTURE
1	RES1	1	GROUP	1 ****	RES
