# created with PyMOL 2.5.2
@<TRIPOS>MOLECULE
SOS1_4W9H_E3ligase
34 36 1                 
SMALL
USER_CHARGES
@<TRIPOS>ATOM
1	  O1	12.311	56.410	94.714	O.2	1	RES1	0.000	
2	  S1	15.524	51.695	82.172	S.2	1	RES1	0.000	
3	  O2	10.343	53.802	91.551	O.2	1	RES1	0.000	
4	  O3	15.516	55.608	89.598	O.3	1	RES1	0.000	
5	  O4	12.544	51.872	89.255	O.2	1	RES1	0.000	
6	  N7	10.998	54.624	94.058	N.pl3	1	RES1	0.000	
7	  N8	12.498	54.179	90.842	N.pl3	1	RES1	0.000	
8	  N9	11.063	52.796	87.768	N.pl3	1	RES1	0.000	
9	 N10	14.608	50.692	79.989	N.2	1	RES1	0.000	
10	 C25	10.016	56.358	95.435	C.3	1	RES1	0.000	
11	 C26	11.222	55.843	94.679	C.2	1	RES1	0.000	
12	 C27	11.998	53.911	93.294	C.3	1	RES1	0.000	
13	 C28	11.529	53.968	91.837	C.2	1	RES1	0.000	
14	 C29	13.894	54.508	91.038	C.3	1	RES1	0.000	
15	 C30	14.492	54.632	89.629	C.3	1	RES1	0.000	
16	 C31	13.302	55.031	88.804	C.3	1	RES1	0.000	
17	 C32	12.141	54.284	89.415	C.3	1	RES1	0.000	
18	 C33	11.970	52.849	88.817	C.2	1	RES1	0.000	
19	 C34	10.745	51.582	87.080	C.3	1	RES1	0.000	
20	 C35	9.228	51.488	86.800	C.3	1	RES1	0.000	
21	 C36	11.574	51.451	85.789	C.2	1	RES1	0.000	
22	 C37	12.265	52.570	85.285	C.2	1	RES1	0.000	
23	 C38	13.026	52.467	84.142	C.2	1	RES1	0.000	
24	 C39	13.081	51.257	83.413	C.2	1	RES1	0.000	
25	 C40	13.887	51.146	82.204	C.2	1	RES1	0.000	
26	 C41	13.581	50.610	80.951	C.2	1	RES1	0.000	
27	 C42	12.311	49.960	80.520	C.3	1	RES1	0.000	
28	 C43	15.652	51.255	80.524	C.2	1	RES1	0.000	
29	 C44	12.386	50.168	83.921	C.2	1	RES1	0.000	
30	 C45	11.645	50.246	85.088	C.2	1	RES1	0.000	
31	 C46	12.238	52.442	93.800	C.3	1	RES1	0.000	
32	 C47	12.740	52.473	95.267	C.3	1	RES1	0.000	
33	 C48	13.310	51.735	92.960	C.3	1	RES1	0.000	
34	 C49	10.958	51.584	93.794	C.3	1	RES1	0.000	
@<TRIPOS>BOND
1 1 11 2
2 2 25 ar
3 2 28 ar
4 3 13 2
5 4 15 1
6 9 26 ar
7 9 28 ar
8 10 11 1
9 6 11 1
10 6 12 1
11 12 13 1
12 12 31 1
13 7 13 1
14 7 14 1
15 14 15 1
16 15 16 1
17 16 17 1
18 7 17 1
19 17 18 1
20 5 18 2
21 8 18 1
22 8 19 1
23 19 20 1
24 19 21 1
25 21 22 ar
26 21 30 ar
27 22 23 ar
28 23 24 ar
29 24 25 1
30 24 29 ar
31 25 26 ar
32 26 27 1
33 29 30 ar
34 31 32 1
35 31 33 1
36 31 34 1
@<TRIPOS>SUBSTRUCTURE
1	RES1	1	GROUP	1 ****	RES
