# created with PyMOL 2.5.2
@<TRIPOS>MOLECULE
SOS1_4W9H_E3ligase
34 36 1                 
SMALL
USER_CHARGES
@<TRIPOS>ATOM
1	  O1	12.403	56.216	94.745	O.2	1	RES1	0.000	
2	  S1	15.467	51.377	82.105	S.2	1	RES1	0.000	
3	  O2	10.629	53.629	91.439	O.2	1	RES1	0.000	
4	  O3	14.061	56.799	90.164	O.3	1	RES1	0.000	
5	  O4	12.334	51.886	89.263	O.2	1	RES1	0.000	
6	  N7	11.066	54.484	94.020	N.pl3	1	RES1	0.000	
7	  N8	12.787	54.113	90.906	N.pl3	1	RES1	0.000	
8	  N9	11.274	53.142	87.669	N.pl3	1	RES1	0.000	
9	 N10	14.537	50.236	80.002	N.2	1	RES1	0.000	
10	 C26	10.063	56.292	95.246	C.3	1	RES1	0.000	
11	 C27	11.306	55.673	94.669	C.2	1	RES1	0.000	
12	 C28	12.113	53.723	93.329	C.3	1	RES1	0.000	
13	 C29	11.789	53.835	91.814	C.2	1	RES1	0.000	
14	 C30	14.168	54.628	91.216	C.3	1	RES1	0.000	
15	 C31	14.518	55.444	89.996	C.3	1	RES1	0.000	
16	 C32	13.825	54.769	88.834	C.3	1	RES1	0.000	
17	 C33	12.525	54.280	89.467	C.3	1	RES1	0.000	
18	 C34	12.093	52.987	88.770	C.2	1	RES1	0.000	
19	 C35	10.687	52.034	86.936	C.3	1	RES1	0.000	
20	 C36	9.187	52.243	86.673	C.3	1	RES1	0.000	
21	 C37	11.476	51.765	85.660	C.2	1	RES1	0.000	
22	 C38	11.359	50.543	85.000	C.2	1	RES1	0.000	
23	 C39	12.084	50.287	83.834	C.2	1	RES1	0.000	
24	 C40	12.989	51.222	83.306	C.2	1	RES1	0.000	
25	 C41	13.798	50.941	82.124	C.2	1	RES1	0.000	
26	 C42	13.506	50.365	80.905	C.2	1	RES1	0.000	
27	 C43	12.143	49.859	80.458	C.3	1	RES1	0.000	
28	 C44	15.631	50.733	80.538	C.2	1	RES1	0.000	
29	 C45	13.128	52.445	83.996	C.2	1	RES1	0.000	
30	 C46	12.400	52.711	85.150	C.2	1	RES1	0.000	
31	 C47	12.273	52.276	93.858	C.3	1	RES1	0.000	
32	 C48	13.269	51.472	93.034	C.3	1	RES1	0.000	
33	 C49	12.766	52.285	95.326	C.3	1	RES1	0.000	
34	 C50	10.902	51.560	93.854	C.3	1	RES1	0.000	
@<TRIPOS>BOND
1 1 11 2
2 2 25 ar
3 2 28 ar
4 3 13 2
5 4 15 1
6 9 26 ar
7 9 28 ar
8 10 11 1
9 6 11 1
10 6 12 1
11 12 13 1
12 12 31 1
13 7 13 1
14 7 14 1
15 14 15 1
16 15 16 1
17 16 17 1
18 7 17 1
19 17 18 1
20 5 18 2
21 8 18 1
22 8 19 1
23 19 20 1
24 19 21 1
25 21 22 ar
26 21 30 ar
27 22 23 ar
28 23 24 ar
29 24 25 1
30 24 29 ar
31 25 26 ar
32 26 27 1
33 29 30 ar
34 31 32 1
35 31 33 1
36 31 34 1
@<TRIPOS>SUBSTRUCTURE
1	RES1	1	GROUP	1 ****	RES
