# created with PyMOL 2.5.2
@<TRIPOS>MOLECULE
SOS1_5NVV_E3ligase
35 37 1                 
SMALL
USER_CHARGES
@<TRIPOS>ATOM
1	  S1	15.914	51.921	82.341	S.2	1	RES1	0.000	
2	  O2	10.321	57.573	96.005	O.3	1	RES1	0.000	
3	  O3	12.517	56.403	94.799	O.2	1	RES1	0.000	
4	  O4	10.755	53.712	91.746	O.2	1	RES1	0.000	
5	  O5	15.792	55.853	89.851	O.3	1	RES1	0.000	
6	  O6	12.999	52.030	89.393	O.2	1	RES1	0.000	
7	  N7	11.347	54.495	94.293	N.pl3	1	RES1	0.000	
8	  N8	12.863	54.240	91.040	N.pl3	1	RES1	0.000	
9	  N9	11.414	52.955	87.965	N.pl3	1	RES1	0.000	
10	 N10	15.036	50.763	80.215	N.2	1	RES1	0.000	
11	 C20	10.285	56.182	95.653	C.3	1	RES1	0.000	
12	 C21	11.511	55.734	94.863	C.2	1	RES1	0.000	
13	 C22	12.417	53.843	93.499	C.3	1	RES1	0.000	
14	 C23	11.925	53.931	92.036	C.2	1	RES1	0.000	
15	 C24	14.261	54.580	91.245	C.3	1	RES1	0.000	
16	 C25	14.811	54.802	89.862	C.3	1	RES1	0.000	
17	 C26	13.600	55.243	89.044	C.3	1	RES1	0.000	
18	 C27	12.492	54.397	89.637	C.3	1	RES1	0.000	
19	 C28	12.339	53.004	88.987	C.2	1	RES1	0.000	
20	 C29	11.049	51.751	87.195	C.3	1	RES1	0.000	
21	 C30	9.545	51.606	86.967	C.3	1	RES1	0.000	
22	 C31	11.916	51.648	85.940	C.2	1	RES1	0.000	
23	 C32	12.664	52.741	85.465	C.2	1	RES1	0.000	
24	 C33	13.448	52.605	84.320	C.2	1	RES1	0.000	
25	 C34	13.514	51.383	83.620	C.2	1	RES1	0.000	
26	 C35	14.330	51.256	82.387	C.2	1	RES1	0.000	
27	 C36	14.023	50.670	81.171	C.2	1	RES1	0.000	
28	 C37	12.793	49.916	80.796	C.3	1	RES1	0.000	
29	 C38	16.066	51.393	80.722	C.2	1	RES1	0.000	
30	 C39	12.734	50.308	84.076	C.2	1	RES1	0.000	
31	 C40	11.936	50.452	85.239	C.2	1	RES1	0.000	
32	 C41	12.735	52.397	93.981	C.3	1	RES1	0.000	
33	 C42	13.723	51.726	93.020	C.3	1	RES1	0.000	
34	 C43	13.366	52.434	95.365	C.3	1	RES1	0.000	
35	 C44	11.460	51.522	94.056	C.3	1	RES1	0.000	
@<TRIPOS>BOND
1 1 26 ar
2 1 29 ar
3 2 11 1
4 10 27 ar
5 10 29 ar
6 11 12 1
7 3 12 2
8 7 12 1
9 7 13 1
10 13 14 1
11 13 32 1
12 4 14 2
13 8 14 1
14 8 15 1
15 15 16 1
16 5 16 1
17 16 17 1
18 17 18 1
19 8 18 1
20 18 19 1
21 6 19 2
22 9 19 1
23 9 20 1
24 20 21 1
25 20 22 1
26 22 23 ar
27 22 31 ar
28 23 24 ar
29 24 25 ar
30 25 26 1
31 25 30 ar
32 26 27 ar
33 27 28 1
34 30 31 ar
35 32 33 1
36 32 34 1
37 32 35 1
@<TRIPOS>SUBSTRUCTURE
1	RES1	1	GROUP	1 ****	RES
