# created with PyMOL 2.5.2
@<TRIPOS>MOLECULE
SOS1_4W9H_E3ligase
34 36 1                 
SMALL
USER_CHARGES
@<TRIPOS>ATOM
1	  S1	15.504	51.495	82.189	S.2	1	RES1	0.000	
2	  O3	12.469	56.284	94.689	O.2	1	RES1	0.000	
3	  O4	10.604	53.739	91.436	O.2	1	RES1	0.000	
4	  O5	14.156	56.657	90.006	O.3	1	RES1	0.000	
5	  O6	12.323	51.799	89.197	O.2	1	RES1	0.000	
6	  N7	11.104	54.534	94.011	N.pl3	1	RES1	0.000	
7	  N8	12.775	54.064	90.878	N.pl3	1	RES1	0.000	
8	  N9	11.160	53.067	87.680	N.pl3	1	RES1	0.000	
9	 N10	14.590	50.425	80.060	N.2	1	RES1	0.000	
10	 C21	10.147	56.366	95.248	C.3	1	RES1	0.000	
11	 C22	11.365	55.739	94.643	C.2	1	RES1	0.000	
12	 C23	12.125	53.782	93.302	C.3	1	RES1	0.000	
13	 C24	11.763	53.858	91.802	C.2	1	RES1	0.000	
14	 C25	14.160	54.491	91.141	C.3	1	RES1	0.000	
15	 C26	14.557	55.298	89.885	C.3	1	RES1	0.000	
16	 C27	13.773	54.609	88.776	C.3	1	RES1	0.000	
17	 C28	12.465	54.196	89.434	C.3	1	RES1	0.000	
18	 C29	12.012	52.892	88.764	C.2	1	RES1	0.000	
19	 C30	10.570	51.935	86.936	C.3	1	RES1	0.000	
20	 C31	9.092	52.112	86.689	C.3	1	RES1	0.000	
21	 C32	11.398	51.715	85.686	C.2	1	RES1	0.000	
22	 C33	12.281	52.712	85.196	C.2	1	RES1	0.000	
23	 C34	13.077	52.458	84.065	C.2	1	RES1	0.000	
24	 C35	13.023	51.227	83.411	C.2	1	RES1	0.000	
25	 C36	13.848	50.993	82.202	C.2	1	RES1	0.000	
26	 C37	13.543	50.440	80.983	C.2	1	RES1	0.000	
27	 C38	12.243	49.841	80.551	C.3	1	RES1	0.000	
28	 C39	15.634	50.955	80.607	C.2	1	RES1	0.000	
29	 C40	12.134	50.250	83.870	C.2	1	RES1	0.000	
30	 C41	11.352	50.510	85.013	C.2	1	RES1	0.000	
31	 C42	12.287	52.301	93.844	C.3	1	RES1	0.000	
32	 C43	12.807	52.314	95.287	C.3	1	RES1	0.000	
33	 C44	13.235	51.461	92.979	C.3	1	RES1	0.000	
34	 C45	10.889	51.605	93.862	C.3	1	RES1	0.000	
@<TRIPOS>BOND
1 1 25 ar
2 1 28 ar
3 9 26 ar
4 9 28 ar
5 10 11 1
6 2 11 2
7 6 11 1
8 6 12 1
9 12 13 1
10 12 31 1
11 3 13 2
12 7 13 1
13 7 14 1
14 14 15 1
15 4 15 1
16 15 16 1
17 16 17 1
18 7 17 1
19 17 18 1
20 5 18 2
21 8 18 1
22 8 19 1
23 19 20 1
24 19 21 1
25 21 22 ar
26 21 30 ar
27 22 23 ar
28 23 24 ar
29 24 25 1
30 24 29 ar
31 25 26 ar
32 26 27 1
33 29 30 ar
34 31 32 1
35 31 33 1
36 31 34 1
@<TRIPOS>SUBSTRUCTURE
1	RES1	1	GROUP	1 ****	RES
