# created with PyMOL 2.5.2
@<TRIPOS>MOLECULE
SOS1_4W9H_E3ligase
34 36 1                 
SMALL
USER_CHARGES
@<TRIPOS>ATOM
1	  S1	15.485	51.435	82.124	S.2	1	RES1	0.000	
2	  O4	12.433	56.241	94.734	O.2	1	RES1	0.000	
3	  O5	10.659	53.616	91.433	O.2	1	RES1	0.000	
4	  O6	14.058	56.729	90.082	O.3	1	RES1	0.000	
5	  N7	11.100	54.511	93.986	N.pl3	1	RES1	0.000	
6	  O7	12.351	51.852	89.199	O.2	1	RES1	0.000	
7	  N8	12.817	54.083	90.891	N.pl3	1	RES1	0.000	
8	  N9	11.207	53.123	87.683	N.pl3	1	RES1	0.000	
9	 N10	14.512	50.272	80.014	N.2	1	RES1	0.000	
10	 C23	10.104	56.308	95.238	C.3	1	RES1	0.000	
11	 C24	11.334	55.740	94.628	C.2	1	RES1	0.000	
12	 C25	12.147	53.728	93.316	C.3	1	RES1	0.000	
13	 C26	11.789	53.831	91.826	C.2	1	RES1	0.000	
14	 C27	14.141	54.579	91.198	C.3	1	RES1	0.000	
15	 C28	14.522	55.386	89.978	C.3	1	RES1	0.000	
16	 C29	13.812	54.716	88.827	C.3	1	RES1	0.000	
17	 C30	12.493	54.229	89.458	C.3	1	RES1	0.000	
18	 C31	12.055	52.964	88.759	C.2	1	RES1	0.000	
19	 C32	10.645	52.001	86.931	C.3	1	RES1	0.000	
20	 C33	9.183	52.254	86.624	C.3	1	RES1	0.000	
21	 C34	11.468	51.767	85.668	C.2	1	RES1	0.000	
22	 C35	11.384	50.551	84.983	C.2	1	RES1	0.000	
23	 C36	12.147	50.308	83.867	C.2	1	RES1	0.000	
24	 C37	13.018	51.260	83.325	C.2	1	RES1	0.000	
25	 C38	13.837	50.982	82.138	C.2	1	RES1	0.000	
26	 C39	13.470	50.377	80.944	C.2	1	RES1	0.000	
27	 C40	12.184	49.800	80.542	C.3	1	RES1	0.000	
28	 C41	15.635	50.781	80.526	C.2	1	RES1	0.000	
29	 C42	13.117	52.496	84.026	C.2	1	RES1	0.000	
30	 C43	12.359	52.740	85.162	C.2	1	RES1	0.000	
31	 C44	12.261	52.296	93.869	C.3	1	RES1	0.000	
32	 C45	13.228	51.409	93.058	C.3	1	RES1	0.000	
33	 C46	12.721	52.303	95.335	C.3	1	RES1	0.000	
34	 C47	10.874	51.584	93.862	C.3	1	RES1	0.000	
@<TRIPOS>BOND
1 1 25 ar
2 1 28 ar
3 9 26 ar
4 9 28 ar
5 10 11 1
6 2 11 2
7 5 11 1
8 5 12 1
9 12 13 1
10 12 31 1
11 3 13 2
12 7 13 1
13 7 14 1
14 14 15 1
15 4 15 1
16 15 16 1
17 16 17 1
18 7 17 1
19 17 18 1
20 6 18 2
21 8 18 1
22 8 19 1
23 19 20 1
24 19 21 1
25 21 22 ar
26 21 30 ar
27 22 23 ar
28 23 24 ar
29 24 25 1
30 24 29 ar
31 25 26 ar
32 26 27 1
33 29 30 ar
34 31 32 1
35 31 33 1
36 31 34 1
@<TRIPOS>SUBSTRUCTURE
1	RES1	1	GROUP	1 ****	RES
