# created with PyMOL 2.5.2
@<TRIPOS>MOLECULE
BRD4_7BQV_E3ligase
20 22 1                 
SMALL
USER_CHARGES
@<TRIPOS>ATOM
1	  N3	-29.082	-18.316	-8.472	N.2	1	RES1	0.000	
2	  N4	-28.658	-20.271	-5.413	N.pl3	1	RES1	0.000	
3	  O4	-28.414	-15.137	-13.418	O.3	1	RES1	0.000	
4	  O5	-26.804	-18.133	-7.927	O.2	1	RES1	0.000	
5	  O6	-29.851	-20.491	-3.485	O.2	1	RES1	0.000	
6	  O7	-27.406	-20.192	-7.285	O.2	1	RES1	0.000	
7	  O8	-31.086	-18.060	-9.709	O.2	1	RES1	0.000	
8	 C24	-28.224	-15.824	-12.232	C.2	1	RES1	0.000	
9	 C25	-26.927	-15.843	-11.700	C.2	1	RES1	0.000	
10	 C26	-26.670	-16.487	-10.495	C.2	1	RES1	0.000	
11	 C27	-27.742	-17.142	-9.865	C.2	1	RES1	0.000	
12	 C28	-27.796	-17.891	-8.650	C.2	1	RES1	0.000	
13	 C29	-29.591	-19.139	-7.379	C.3	1	RES1	0.000	
14	 C30	-30.402	-18.365	-6.334	C.3	1	RES1	0.000	
15	 C31	-30.914	-19.319	-5.265	C.3	1	RES1	0.000	
16	 C32	-29.774	-20.075	-4.605	C.2	1	RES1	0.000	
17	 C33	-28.431	-19.883	-6.707	C.2	1	RES1	0.000	
18	 C34	-29.881	-17.884	-9.502	C.2	1	RES1	0.000	
19	 C35	-29.019	-17.120	-10.409	C.2	1	RES1	0.000	
20	 C36	-29.293	-16.474	-11.610	C.2	1	RES1	0.000	
@<TRIPOS>BOND
1 1 18 ar
2 3 8 1
3 8 9 ar
4 8 20 ar
5 9 10 ar
6 10 11 ar
7 11 12 ar
8 11 19 ar
9 1 12 ar
10 4 12 2
11 1 13 1
12 13 14 1
13 13 17 1
14 14 15 1
15 15 16 1
16 2 16 1
17 5 16 2
18 2 17 1
19 6 17 2
20 7 18 2
21 18 19 ar
22 19 20 ar
@<TRIPOS>SUBSTRUCTURE
1	RES1	1	GROUP	1 ****	RES
