# created with PyMOL 2.5.2
@<TRIPOS>MOLECULE
SOS1_4W9H_E3ligase
34 36 1                 
SMALL
USER_CHARGES
@<TRIPOS>ATOM
1	  S1	15.529	51.530	82.070	S.2	1	RES1	0.000	
2	  O2	12.348	56.312	94.739	O.2	1	RES1	0.000	
3	  O3	10.543	53.719	91.420	O.2	1	RES1	0.000	
4	  O4	14.108	56.602	90.197	O.3	1	RES1	0.000	
5	  O5	12.398	51.760	89.217	O.2	1	RES1	0.000	
6	  N8	11.018	54.562	94.024	N.pl3	1	RES1	0.000	
7	  N9	12.737	54.028	90.877	N.pl3	1	RES1	0.000	
8	 N10	11.203	53.018	87.711	N.pl3	1	RES1	0.000	
9	 N11	14.566	50.359	80.013	N.2	1	RES1	0.000	
10	 C21	10.022	56.390	95.232	C.3	1	RES1	0.000	
11	 C22	11.276	55.762	94.646	C.2	1	RES1	0.000	
12	 C23	12.053	53.808	93.295	C.3	1	RES1	0.000	
13	 C24	11.684	53.861	91.797	C.2	1	RES1	0.000	
14	 C25	14.104	54.398	91.213	C.3	1	RES1	0.000	
15	 C26	14.556	55.239	90.029	C.3	1	RES1	0.000	
16	 C27	13.802	54.641	88.850	C.3	1	RES1	0.000	
17	 C28	12.473	54.192	89.437	C.3	1	RES1	0.000	
18	 C29	12.048	52.839	88.813	C.2	1	RES1	0.000	
19	 C30	10.686	51.906	86.948	C.3	1	RES1	0.000	
20	 C31	9.204	52.103	86.557	C.3	1	RES1	0.000	
21	 C32	11.544	51.655	85.686	C.2	1	RES1	0.000	
22	 C33	11.486	50.442	84.984	C.2	1	RES1	0.000	
23	 C34	12.255	50.260	83.854	C.2	1	RES1	0.000	
24	 C35	13.080	51.272	83.330	C.2	1	RES1	0.000	
25	 C36	13.881	51.054	82.149	C.2	1	RES1	0.000	
26	 C37	13.523	50.435	80.906	C.2	1	RES1	0.000	
27	 C38	12.208	49.895	80.509	C.3	1	RES1	0.000	
28	 C39	15.652	50.914	80.494	C.2	1	RES1	0.000	
29	 C40	13.102	52.493	84.036	C.2	1	RES1	0.000	
30	 C41	12.335	52.680	85.175	C.2	1	RES1	0.000	
31	 C42	12.239	52.365	93.853	C.3	1	RES1	0.000	
32	 C43	13.294	51.631	93.010	C.3	1	RES1	0.000	
33	 C44	12.699	52.436	95.304	C.3	1	RES1	0.000	
34	 C45	10.921	51.553	93.816	C.3	1	RES1	0.000	
@<TRIPOS>BOND
1 1 25 ar
2 1 28 ar
3 2 11 2
4 8 18 1
5 8 19 1
6 9 26 ar
7 9 28 ar
8 10 11 1
9 6 11 1
10 6 12 1
11 12 13 1
12 12 31 1
13 3 13 2
14 7 13 1
15 7 14 1
16 14 15 1
17 4 15 1
18 15 16 1
19 16 17 1
20 7 17 1
21 17 18 1
22 5 18 2
23 19 20 1
24 19 21 1
25 21 22 ar
26 21 30 ar
27 22 23 ar
28 23 24 ar
29 24 25 1
30 24 29 ar
31 25 26 ar
32 26 27 1
33 29 30 ar
34 31 32 1
35 31 33 1
36 31 34 1
@<TRIPOS>SUBSTRUCTURE
1	RES1	1	GROUP	1 ****	RES
