# created with PyMOL 2.5.2
@<TRIPOS>MOLECULE
SOS1_4W9H_E3ligase
34 36 1                 
SMALL
USER_CHARGES
@<TRIPOS>ATOM
1	  S1	15.507	51.500	82.144	S.2	1	RES1	0.000	
2	  O2	12.466	56.320	94.667	O.2	1	RES1	0.000	
3	  O3	10.573	53.703	91.469	O.2	1	RES1	0.000	
4	  O4	14.214	56.581	90.016	O.3	1	RES1	0.000	
5	  O5	12.321	51.760	89.262	O.2	1	RES1	0.000	
6	  N8	11.104	54.579	94.019	N.pl3	1	RES1	0.000	
7	  N9	12.735	54.070	90.870	N.pl3	1	RES1	0.000	
8	 N10	11.110	53.031	87.748	N.pl3	1	RES1	0.000	
9	 N11	14.543	50.413	80.045	N.2	1	RES1	0.000	
10	 C22	10.159	56.398	95.260	C.3	1	RES1	0.000	
11	 C23	11.382	55.756	94.636	C.2	1	RES1	0.000	
12	 C24	12.117	53.790	93.290	C.3	1	RES1	0.000	
13	 C25	11.713	53.881	91.801	C.2	1	RES1	0.000	
14	 C26	14.141	54.409	91.105	C.3	1	RES1	0.000	
15	 C27	14.535	55.195	89.873	C.3	1	RES1	0.000	
16	 C28	13.709	54.612	88.745	C.3	1	RES1	0.000	
17	 C29	12.415	54.190	89.421	C.3	1	RES1	0.000	
18	 C30	11.935	52.845	88.837	C.2	1	RES1	0.000	
19	 C31	10.583	51.889	86.939	C.3	1	RES1	0.000	
20	 C32	9.129	52.106	86.596	C.3	1	RES1	0.000	
21	 C33	11.465	51.701	85.699	C.2	1	RES1	0.000	
22	 C34	12.328	52.692	85.235	C.2	1	RES1	0.000	
23	 C35	13.111	52.476	84.115	C.2	1	RES1	0.000	
24	 C36	13.080	51.258	83.408	C.2	1	RES1	0.000	
25	 C37	13.868	51.042	82.177	C.2	1	RES1	0.000	
26	 C38	13.533	50.479	80.980	C.2	1	RES1	0.000	
27	 C39	12.187	49.953	80.548	C.3	1	RES1	0.000	
28	 C40	15.643	50.908	80.538	C.2	1	RES1	0.000	
29	 C41	12.205	50.274	83.885	C.2	1	RES1	0.000	
30	 C42	11.425	50.468	85.006	C.2	1	RES1	0.000	
31	 C43	12.278	52.351	93.824	C.3	1	RES1	0.000	
32	 C44	12.872	52.365	95.247	C.3	1	RES1	0.000	
33	 C45	13.209	51.481	92.940	C.3	1	RES1	0.000	
34	 C46	10.907	51.640	93.892	C.3	1	RES1	0.000	
@<TRIPOS>BOND
1 1 25 ar
2 1 28 ar
3 2 11 2
4 8 18 1
5 8 19 1
6 9 26 ar
7 9 28 ar
8 10 11 1
9 6 11 1
10 6 12 1
11 12 13 1
12 12 31 1
13 3 13 2
14 7 13 1
15 7 14 1
16 14 15 1
17 4 15 1
18 15 16 1
19 16 17 1
20 7 17 1
21 17 18 1
22 5 18 2
23 19 20 1
24 19 21 1
25 21 22 ar
26 21 30 ar
27 22 23 ar
28 23 24 ar
29 24 25 1
30 24 29 ar
31 25 26 ar
32 26 27 1
33 29 30 ar
34 31 32 1
35 31 33 1
36 31 34 1
@<TRIPOS>SUBSTRUCTURE
1	RES1	1	GROUP	1 ****	RES
