# created with PyMOL 2.5.2
@<TRIPOS>MOLECULE
SOS1_4W9H_E3ligase
34 36 1                 
SMALL
USER_CHARGES
@<TRIPOS>ATOM
1	  S1	15.519	51.401	82.104	S.2	1	RES1	0.000	
2	  O2	12.448	56.235	94.740	O.2	1	RES1	0.000	
3	  O3	10.620	53.594	91.442	O.2	1	RES1	0.000	
4	  O4	14.020	56.721	90.011	O.3	1	RES1	0.000	
5	  O5	12.344	51.801	89.218	O.2	1	RES1	0.000	
6	  N8	11.071	54.513	94.006	N.pl3	1	RES1	0.000	
7	  N9	12.814	54.083	90.903	N.pl3	1	RES1	0.000	
8	 N10	11.237	53.108	87.692	N.pl3	1	RES1	0.000	
9	 N11	14.518	50.255	80.040	N.2	1	RES1	0.000	
10	 C23	10.104	56.369	95.230	C.3	1	RES1	0.000	
11	 C24	11.327	55.723	94.632	C.2	1	RES1	0.000	
12	 C25	12.119	53.740	93.315	C.3	1	RES1	0.000	
13	 C26	11.772	53.825	91.803	C.2	1	RES1	0.000	
14	 C27	14.135	54.621	91.204	C.3	1	RES1	0.000	
15	 C28	14.534	55.416	89.943	C.3	1	RES1	0.000	
16	 C29	13.818	54.664	88.840	C.3	1	RES1	0.000	
17	 C30	12.509	54.193	89.455	C.3	1	RES1	0.000	
18	 C31	12.061	52.897	88.760	C.2	1	RES1	0.000	
19	 C32	10.654	52.014	86.909	C.3	1	RES1	0.000	
20	 C33	9.149	52.245	86.627	C.3	1	RES1	0.000	
21	 C34	11.466	51.779	85.642	C.2	1	RES1	0.000	
22	 C35	12.344	52.749	85.155	C.2	1	RES1	0.000	
23	 C36	13.110	52.481	84.037	C.2	1	RES1	0.000	
24	 C37	13.047	51.247	83.346	C.2	1	RES1	0.000	
25	 C38	13.838	50.980	82.156	C.2	1	RES1	0.000	
26	 C39	13.504	50.394	80.943	C.2	1	RES1	0.000	
27	 C40	12.147	49.950	80.517	C.3	1	RES1	0.000	
28	 C41	15.633	50.763	80.551	C.2	1	RES1	0.000	
29	 C42	12.119	50.298	83.840	C.2	1	RES1	0.000	
30	 C43	11.348	50.564	84.955	C.2	1	RES1	0.000	
31	 C44	12.260	52.268	93.903	C.3	1	RES1	0.000	
32	 C45	13.234	51.410	93.067	C.3	1	RES1	0.000	
33	 C46	12.801	52.370	95.347	C.3	1	RES1	0.000	
34	 C47	10.895	51.582	93.921	C.3	1	RES1	0.000	
@<TRIPOS>BOND
1 1 25 ar
2 1 28 ar
3 2 11 2
4 8 18 1
5 8 19 1
6 9 26 ar
7 9 28 ar
8 10 11 1
9 6 11 1
10 6 12 1
11 12 13 1
12 12 31 1
13 3 13 2
14 7 13 1
15 7 14 1
16 14 15 1
17 4 15 1
18 15 16 1
19 16 17 1
20 7 17 1
21 17 18 1
22 5 18 2
23 19 20 1
24 19 21 1
25 21 22 ar
26 21 30 ar
27 22 23 ar
28 23 24 ar
29 24 25 1
30 24 29 ar
31 25 26 ar
32 26 27 1
33 29 30 ar
34 31 32 1
35 31 33 1
36 31 34 1
@<TRIPOS>SUBSTRUCTURE
1	RES1	1	GROUP	1 ****	RES
