# created with PyMOL 2.5.2
@<TRIPOS>MOLECULE
SOS1_4W9H_E3ligase
34 36 1                 
SMALL
USER_CHARGES
@<TRIPOS>ATOM
1	  O1	12.149	56.396	94.731	O.2	1	RES1	0.000	
2	  S1	15.579	51.442	81.970	S.2	1	RES1	0.000	
3	  O2	10.436	53.701	91.557	O.2	1	RES1	0.000	
4	  O3	14.142	56.589	90.417	O.3	1	RES1	0.000	
5	  O4	12.370	51.879	89.183	O.2	1	RES1	0.000	
6	  N8	10.976	54.531	94.083	N.pl3	1	RES1	0.000	
7	  N9	12.601	54.075	90.921	N.pl3	1	RES1	0.000	
8	 N10	11.281	53.146	87.599	N.pl3	1	RES1	0.000	
9	 N11	14.555	50.240	79.928	N.2	1	RES1	0.000	
10	 C20	9.860	56.206	95.425	C.3	1	RES1	0.000	
11	 C21	11.129	55.748	94.706	C.2	1	RES1	0.000	
12	 C22	12.044	53.824	93.345	C.3	1	RES1	0.000	
13	 C23	11.637	53.859	91.876	C.2	1	RES1	0.000	
14	 C24	13.990	54.350	91.274	C.3	1	RES1	0.000	
15	 C25	14.512	55.234	90.161	C.3	1	RES1	0.000	
16	 C26	13.793	54.696	88.939	C.3	1	RES1	0.000	
17	 C27	12.423	54.253	89.461	C.3	1	RES1	0.000	
18	 C28	12.041	52.973	88.704	C.2	1	RES1	0.000	
19	 C29	10.727	52.007	86.813	C.3	1	RES1	0.000	
20	 C30	9.278	52.253	86.452	C.3	1	RES1	0.000	
21	 C31	11.608	51.740	85.587	C.2	1	RES1	0.000	
22	 C32	11.516	50.528	84.915	C.2	1	RES1	0.000	
23	 C33	12.280	50.269	83.793	C.2	1	RES1	0.000	
24	 C34	13.136	51.238	83.269	C.2	1	RES1	0.000	
25	 C35	13.926	50.938	82.045	C.2	1	RES1	0.000	
26	 C36	13.550	50.353	80.850	C.2	1	RES1	0.000	
27	 C37	12.223	49.825	80.486	C.3	1	RES1	0.000	
28	 C38	15.653	50.778	80.393	C.2	1	RES1	0.000	
29	 C39	13.224	52.462	83.909	C.2	1	RES1	0.000	
30	 C40	12.464	52.725	85.058	C.2	1	RES1	0.000	
31	 C41	12.297	52.384	93.904	C.3	1	RES1	0.000	
32	 C42	11.026	51.490	93.701	C.3	1	RES1	0.000	
33	 C43	13.453	51.709	93.137	C.3	1	RES1	0.000	
34	 C44	12.662	52.372	95.402	C.3	1	RES1	0.000	
@<TRIPOS>BOND
1 1 11 2
2 2 25 ar
3 2 28 ar
4 3 13 2
5 8 18 1
6 8 19 1
7 9 26 ar
8 9 28 ar
9 10 11 1
10 6 11 1
11 6 12 1
12 12 13 1
13 12 31 1
14 7 13 1
15 7 14 1
16 14 15 1
17 4 15 1
18 15 16 1
19 16 17 1
20 7 17 1
21 17 18 1
22 5 18 2
23 19 20 1
24 19 21 1
25 21 22 ar
26 21 30 ar
27 22 23 ar
28 23 24 ar
29 24 25 1
30 24 29 ar
31 25 26 ar
32 26 27 1
33 29 30 ar
34 31 32 1
35 31 33 1
36 31 34 1
@<TRIPOS>SUBSTRUCTURE
1	RES1	1	GROUP	1 ****	RES
