# created with PyMOL 2.5.2
@<TRIPOS>MOLECULE
SOS1_4W9H_E3ligase
34 36 1                 
SMALL
USER_CHARGES
@<TRIPOS>ATOM
1	  O1	12.250	56.442	94.638	O.2	1	RES1	0.000	
2	  S1	15.604	51.381	82.078	S.2	1	RES1	0.000	
3	  O2	10.413	53.708	91.633	O.2	1	RES1	0.000	
4	  O3	14.066	56.603	90.394	O.3	1	RES1	0.000	
5	  O4	12.348	51.769	89.157	O.2	1	RES1	0.000	
6	  N8	11.020	54.551	94.103	N.pl3	1	RES1	0.000	
7	  N9	12.558	54.045	90.904	N.pl3	1	RES1	0.000	
8	 N10	11.268	53.039	87.597	N.pl3	1	RES1	0.000	
9	 N11	14.667	50.314	79.920	N.2	1	RES1	0.000	
10	 C21	9.995	56.286	95.444	C.3	1	RES1	0.000	
11	 C22	11.214	55.819	94.694	C.2	1	RES1	0.000	
12	 C23	12.077	53.852	93.372	C.3	1	RES1	0.000	
13	 C24	11.589	53.834	91.907	C.2	1	RES1	0.000	
14	 C25	13.937	54.336	91.312	C.3	1	RES1	0.000	
15	 C26	14.439	55.230	90.181	C.3	1	RES1	0.000	
16	 C27	13.725	54.678	88.934	C.3	1	RES1	0.000	
17	 C28	12.386	54.172	89.459	C.3	1	RES1	0.000	
18	 C29	12.040	52.857	88.712	C.2	1	RES1	0.000	
19	 C30	10.730	51.937	86.807	C.3	1	RES1	0.000	
20	 C31	9.238	52.146	86.512	C.3	1	RES1	0.000	
21	 C32	11.549	51.695	85.541	C.2	1	RES1	0.000	
22	 C33	12.409	52.693	85.061	C.2	1	RES1	0.000	
23	 C34	13.195	52.425	83.909	C.2	1	RES1	0.000	
24	 C35	13.079	51.216	83.193	C.2	1	RES1	0.000	
25	 C36	13.909	50.962	82.058	C.2	1	RES1	0.000	
26	 C37	13.613	50.434	80.796	C.2	1	RES1	0.000	
27	 C38	12.307	49.967	80.291	C.3	1	RES1	0.000	
28	 C39	15.749	50.809	80.492	C.2	1	RES1	0.000	
29	 C40	12.180	50.273	83.713	C.2	1	RES1	0.000	
30	 C41	11.459	50.512	84.852	C.2	1	RES1	0.000	
31	 C42	12.317	52.405	93.953	C.3	1	RES1	0.000	
32	 C43	13.499	51.730	93.188	C.3	1	RES1	0.000	
33	 C44	11.062	51.551	93.728	C.3	1	RES1	0.000	
34	 C45	12.670	52.407	95.431	C.3	1	RES1	0.000	
@<TRIPOS>BOND
1 1 11 2
2 2 25 ar
3 2 28 ar
4 3 13 2
5 8 18 1
6 8 19 1
7 9 26 ar
8 9 28 ar
9 10 11 1
10 6 11 1
11 6 12 1
12 12 13 1
13 12 31 1
14 7 13 1
15 7 14 1
16 14 15 1
17 4 15 1
18 15 16 1
19 16 17 1
20 7 17 1
21 17 18 1
22 5 18 2
23 19 20 1
24 19 21 1
25 21 22 ar
26 21 30 ar
27 22 23 ar
28 23 24 ar
29 24 25 1
30 24 29 ar
31 25 26 ar
32 26 27 1
33 29 30 ar
34 31 32 1
35 31 33 1
36 31 34 1
@<TRIPOS>SUBSTRUCTURE
1	RES1	1	GROUP	1 ****	RES
