# created with PyMOL 2.5.2
@<TRIPOS>MOLECULE
SOS1_4W9H_E3ligase
34 36 1                 
SMALL
USER_CHARGES
@<TRIPOS>ATOM
1	  O1	12.175	56.404	94.701	O.2	1	RES1	0.000	
2	  S1	15.594	51.416	82.031	S.2	1	RES1	0.000	
3	  O2	10.459	53.641	91.583	O.2	1	RES1	0.000	
4	  O3	14.158	56.569	90.387	O.3	1	RES1	0.000	
5	  O4	12.347	51.817	89.130	O.2	1	RES1	0.000	
6	  N8	10.969	54.524	94.088	N.pl3	1	RES1	0.000	
7	  N9	12.601	54.067	90.914	N.pl3	1	RES1	0.000	
8	 N10	11.242	53.102	87.586	N.pl3	1	RES1	0.000	
9	 N11	14.639	50.247	79.945	N.2	1	RES1	0.000	
10	 C22	9.881	56.225	95.385	C.3	1	RES1	0.000	
11	 C23	11.132	55.782	94.707	C.2	1	RES1	0.000	
12	 C24	12.059	53.818	93.370	C.3	1	RES1	0.000	
13	 C25	11.638	53.844	91.897	C.2	1	RES1	0.000	
14	 C26	13.991	54.332	91.255	C.3	1	RES1	0.000	
15	 C27	14.494	55.198	90.132	C.3	1	RES1	0.000	
16	 C28	13.761	54.698	88.915	C.3	1	RES1	0.000	
17	 C29	12.408	54.213	89.455	C.3	1	RES1	0.000	
18	 C30	12.038	52.922	88.713	C.2	1	RES1	0.000	
19	 C31	10.720	52.001	86.828	C.3	1	RES1	0.000	
20	 C32	9.252	52.195	86.487	C.3	1	RES1	0.000	
21	 C33	11.540	51.766	85.555	C.2	1	RES1	0.000	
22	 C34	12.400	52.748	85.045	C.2	1	RES1	0.000	
23	 C35	13.154	52.492	83.883	C.2	1	RES1	0.000	
24	 C36	13.105	51.272	83.230	C.2	1	RES1	0.000	
25	 C37	13.950	50.981	82.057	C.2	1	RES1	0.000	
26	 C38	13.566	50.366	80.854	C.2	1	RES1	0.000	
27	 C39	12.245	49.889	80.420	C.3	1	RES1	0.000	
28	 C40	15.718	50.750	80.451	C.2	1	RES1	0.000	
29	 C41	12.256	50.280	83.768	C.2	1	RES1	0.000	
30	 C42	11.496	50.527	84.907	C.2	1	RES1	0.000	
31	 C43	12.327	52.414	93.940	C.3	1	RES1	0.000	
32	 C44	11.112	51.480	93.744	C.3	1	RES1	0.000	
33	 C45	13.528	51.752	93.221	C.3	1	RES1	0.000	
34	 C46	12.676	52.435	95.436	C.3	1	RES1	0.000	
@<TRIPOS>BOND
1 1 11 2
2 2 25 ar
3 2 28 ar
4 3 13 2
5 8 18 1
6 8 19 1
7 9 26 ar
8 9 28 ar
9 10 11 1
10 6 11 1
11 6 12 1
12 12 13 1
13 12 31 1
14 7 13 1
15 7 14 1
16 14 15 1
17 4 15 1
18 15 16 1
19 16 17 1
20 7 17 1
21 17 18 1
22 5 18 2
23 19 20 1
24 19 21 1
25 21 22 ar
26 21 30 ar
27 22 23 ar
28 23 24 ar
29 24 25 1
30 24 29 ar
31 25 26 ar
32 26 27 1
33 29 30 ar
34 31 32 1
35 31 33 1
36 31 34 1
@<TRIPOS>SUBSTRUCTURE
1	RES1	1	GROUP	1 ****	RES
