# created with PyMOL 2.5.2
@<TRIPOS>MOLECULE
CDK2_5NVV_E3ligase
34 36 1                 
SMALL
USER_CHARGES
@<TRIPOS>ATOM
1	  C1	12.703	49.941	80.660	C.3	1	RES1	0.000	
2	  N1	11.525	53.199	87.883	N.pl3	1	RES1	0.000	
3	  O1	12.754	51.880	89.329	O.2	1	RES1	0.000	
4	  C2	14.001	50.513	81.166	C.2	1	RES1	0.000	
5	  N2	13.172	54.159	91.068	N.pl3	1	RES1	0.000	
6	  O2	14.388	56.806	90.226	O.3	1	RES1	0.000	
7	  S2	15.885	51.672	82.445	S.2	1	RES1	0.000	
8	  C3	14.214	51.131	82.379	C.2	1	RES1	0.000	
9	  N3	11.454	54.423	94.231	N.pl3	1	RES1	0.000	
10	  O3	10.992	53.671	91.648	O.2	1	RES1	0.000	
11	  C4	13.332	51.387	83.541	C.2	1	RES1	0.000	
12	  O4	12.631	56.297	94.826	O.2	1	RES1	0.000	
13	  C5	13.382	52.644	84.205	C.2	1	RES1	0.000	
14	  O5	10.488	57.428	96.122	O.3	1	RES1	0.000	
15	  C6	12.620	52.866	85.318	C.2	1	RES1	0.000	
16	  C7	11.770	51.895	85.836	C.2	1	RES1	0.000	
17	  C8	10.996	52.109	87.096	C.3	1	RES1	0.000	
18	  C9	12.417	53.001	88.934	C.2	1	RES1	0.000	
19	 C10	12.847	54.286	89.644	C.3	1	RES1	0.000	
20	 C11	14.166	54.764	88.996	C.3	1	RES1	0.000	
21	 C12	14.886	55.469	90.131	C.3	1	RES1	0.000	
22	 N12	15.078	50.442	80.328	N.2	1	RES1	0.000	
23	 C13	14.465	54.667	91.356	C.3	1	RES1	0.000	
24	 C14	12.142	53.843	91.985	C.2	1	RES1	0.000	
25	 C15	12.521	53.779	93.474	C.3	1	RES1	0.000	
26	 C16	11.603	55.666	94.803	C.2	1	RES1	0.000	
27	 C17	10.301	56.180	95.486	C.3	1	RES1	0.000	
28	 C42	12.770	52.314	93.991	C.3	1	RES1	0.000	
29	 C43	11.428	51.539	94.067	C.3	1	RES1	0.000	
30	 C44	13.336	52.356	95.422	C.3	1	RES1	0.000	
31	 C45	13.733	51.500	93.129	C.3	1	RES1	0.000	
32	 C46	11.734	50.650	85.198	C.2	1	RES1	0.000	
33	 C47	12.506	50.402	84.045	C.2	1	RES1	0.000	
34	 C48	16.115	50.996	80.870	C.2	1	RES1	0.000	
@<TRIPOS>BOND
1 1 4 1
2 2 17 1
3 2 18 1
4 3 18 2
5 4 8 ar
6 7 8 ar
7 7 34 ar
8 8 11 1
9 11 13 ar
10 11 33 ar
11 13 15 ar
12 15 16 ar
13 16 17 1
14 5 19 1
15 18 19 1
16 19 20 1
17 20 21 1
18 6 21 1
19 21 23 1
20 4 22 ar
21 22 34 ar
22 5 23 1
23 5 24 1
24 10 24 2
25 24 25 1
26 9 25 1
27 25 28 1
28 9 26 1
29 12 26 2
30 26 27 1
31 14 27 1
32 28 29 1
33 28 30 1
34 28 31 1
35 16 32 ar
36 32 33 ar
@<TRIPOS>SUBSTRUCTURE
1	RES1	1	GROUP	1 ****	RES
