# created with PyMOL 2.5.2
@<TRIPOS>MOLECULE
KRAS_4W9H_E3ligase
33 35 1                 
SMALL
USER_CHARGES
@<TRIPOS>ATOM
1	  C1	12.414	49.958	80.552	C.3	1	RES1	0.000	
2	  N1	10.932	52.730	87.747	N.pl3	1	RES1	0.000	
3	  O1	12.331	51.762	89.260	O.2	1	RES1	0.000	
4	  S1	15.496	51.859	82.315	S.2	1	RES1	0.000	
5	  C2	13.632	50.677	81.001	C.2	1	RES1	0.000	
6	  N2	12.510	54.117	90.815	N.pl3	1	RES1	0.000	
7	  O2	15.515	55.438	89.391	O.3	1	RES1	0.000	
8	  C3	13.900	51.209	82.254	C.2	1	RES1	0.000	
9	  N3	11.098	54.665	94.068	N.pl3	1	RES1	0.000	
10	  O3	10.395	53.846	91.569	O.2	1	RES1	0.000	
11	  C4	13.064	51.284	83.449	C.2	1	RES1	0.000	
12	  O4	12.506	56.424	94.626	O.2	1	RES1	0.000	
13	  C5	12.927	52.489	84.170	C.2	1	RES1	0.000	
14	  C6	12.131	52.583	85.295	C.2	1	RES1	0.000	
15	  C7	11.418	51.439	85.757	C.2	1	RES1	0.000	
16	  C8	10.597	51.519	87.024	C.3	1	RES1	0.000	
17	  C9	11.846	52.763	88.789	C.2	1	RES1	0.000	
18	 C10	12.096	54.156	89.414	C.3	1	RES1	0.000	
19	 C11	13.255	54.838	88.690	C.3	1	RES1	0.000	
20	 C12	14.463	54.506	89.536	C.3	1	RES1	0.000	
21	 N12	14.676	50.784	80.077	N.2	1	RES1	0.000	
22	 C13	13.911	54.512	90.952	C.3	1	RES1	0.000	
23	 C14	11.568	53.940	91.840	C.2	1	RES1	0.000	
24	 C15	12.073	53.901	93.291	C.3	1	RES1	0.000	
25	 C16	11.428	55.891	94.640	C.2	1	RES1	0.000	
26	 C17	10.238	56.512	95.348	C.3	1	RES1	0.000	
27	 C57	12.305	52.461	93.874	C.3	1	RES1	0.000	
28	 C58	10.955	51.769	94.076	C.3	1	RES1	0.000	
29	 C59	12.987	52.539	95.242	C.3	1	RES1	0.000	
30	 C60	13.208	51.610	92.975	C.3	1	RES1	0.000	
31	 C61	11.515	50.261	85.032	C.2	1	RES1	0.000	
32	 C62	12.291	50.169	83.903	C.2	1	RES1	0.000	
33	 C63	15.686	51.399	80.661	C.2	1	RES1	0.000	
@<TRIPOS>BOND
1 1 5 1
2 2 16 1
3 2 17 1
4 3 17 2
5 4 8 ar
6 4 33 ar
7 5 8 ar
8 8 11 1
9 11 13 ar
10 11 32 ar
11 13 14 ar
12 14 15 ar
13 15 16 1
14 6 18 1
15 17 18 1
16 18 19 1
17 19 20 1
18 7 20 1
19 20 22 1
20 5 21 ar
21 21 33 ar
22 6 22 1
23 6 23 1
24 10 23 2
25 23 24 1
26 9 24 1
27 24 27 1
28 9 25 1
29 12 25 2
30 25 26 1
31 27 28 1
32 27 29 1
33 27 30 1
34 15 31 ar
35 31 32 ar
@<TRIPOS>SUBSTRUCTURE
1	RES1	1	GROUP	1 ****	RES
