# created with PyMOL 2.5.2
@<TRIPOS>MOLECULE
CCR9_5NVV_E3ligase
34 36 1                 
SMALL
USER_CHARGES
@<TRIPOS>ATOM
1	  C1	12.747	49.907	80.703	C.3	1	RES1	0.000	
2	  N1	11.473	53.093	87.866	N.pl3	1	RES1	0.000	
3	  O1	12.814	51.892	89.211	O.2	1	RES1	0.000	
4	  C2	14.004	50.541	81.146	C.2	1	RES1	0.000	
5	  N2	13.066	54.105	91.053	N.pl3	1	RES1	0.000	
6	  O2	14.307	56.784	90.463	O.3	1	RES1	0.000	
7	  S2	15.888	51.691	82.378	S.2	1	RES1	0.000	
8	  C3	14.257	51.160	82.359	C.2	1	RES1	0.000	
9	  N3	11.463	54.480	94.253	N.pl3	1	RES1	0.000	
10	  O3	10.907	53.671	91.672	O.2	1	RES1	0.000	
11	  C4	13.401	51.389	83.526	C.2	1	RES1	0.000	
12	  O4	12.727	56.362	94.726	O.2	1	RES1	0.000	
13	  C5	12.553	50.376	84.000	C.2	1	RES1	0.000	
14	  O5	10.690	57.568	96.140	O.3	1	RES1	0.000	
15	  C6	11.776	50.583	85.127	C.2	1	RES1	0.000	
16	  C7	11.819	51.778	85.853	C.2	1	RES1	0.000	
17	  C8	10.979	51.990	87.065	C.3	1	RES1	0.000	
18	  C9	12.348	52.979	88.923	C.2	1	RES1	0.000	
19	  N9	15.056	50.539	80.255	N.2	1	RES1	0.000	
20	 C10	12.754	54.273	89.623	C.3	1	RES1	0.000	
21	 C11	14.007	54.857	89.035	C.3	1	RES1	0.000	
22	 C12	14.776	55.434	90.201	C.3	1	RES1	0.000	
23	 C13	14.439	54.502	91.320	C.3	1	RES1	0.000	
24	 C14	12.060	53.859	92.024	C.2	1	RES1	0.000	
25	 C15	12.500	53.786	93.502	C.3	1	RES1	0.000	
26	 C16	11.653	55.726	94.800	C.2	1	RES1	0.000	
27	 C17	10.429	56.296	95.536	C.3	1	RES1	0.000	
28	 C49	12.726	52.299	94.007	C.3	1	RES1	0.000	
29	 C50	11.429	51.533	94.155	C.3	1	RES1	0.000	
30	 C51	13.432	52.338	95.386	C.3	1	RES1	0.000	
31	 C52	13.633	51.567	93.026	C.3	1	RES1	0.000	
32	 C53	12.675	52.786	85.391	C.2	1	RES1	0.000	
33	 C54	13.462	52.593	84.261	C.2	1	RES1	0.000	
34	 C55	16.099	51.106	80.802	C.2	1	RES1	0.000	
@<TRIPOS>BOND
1 1 4 1
2 2 17 1
3 2 18 1
4 3 18 2
5 4 8 ar
6 4 19 ar
7 7 8 ar
8 7 34 ar
9 8 11 1
10 11 13 ar
11 11 33 ar
12 13 15 ar
13 15 16 ar
14 16 17 1
15 5 20 1
16 18 20 1
17 20 21 1
18 21 22 1
19 6 22 1
20 22 23 1
21 5 23 1
22 5 24 1
23 10 24 2
24 24 25 1
25 9 25 1
26 25 28 1
27 9 26 1
28 12 26 2
29 26 27 1
30 14 27 1
31 28 29 1
32 28 30 1
33 28 31 1
34 16 32 ar
35 32 33 ar
36 19 34 ar
@<TRIPOS>SUBSTRUCTURE
1	RES1	1	GROUP	1 ****	RES
