# created with PyMOL 2.5.2
@<TRIPOS>MOLECULE
BRD4_6H0G_E3ligase
20 22 1                 
SMALL
USER_CHARGES
@<TRIPOS>ATOM
1	  N3	1.987	54.435	-85.619	N.pl3	1	RES1	0.000	
2	  N4	1.764	51.765	-82.120	N.2	1	RES1	0.000	
3	  O4	2.864	53.716	-82.875	O.2	1	RES1	0.000	
4	  N5	1.990	50.061	-78.883	N.pl3	1	RES1	0.000	
5	  O5	3.650	49.681	-77.372	O.3	1	RES1	0.000	
6	  O6	0.220	50.397	-80.277	O.2	1	RES1	0.000	
7	  O7	0.406	49.841	-82.235	O.2	1	RES1	0.000	
8	 C19	1.348	53.186	-85.458	C.2	1	RES1	0.000	
9	 C20	0.489	52.660	-86.440	C.2	1	RES1	0.000	
10	 C21	-0.230	51.503	-86.262	C.2	1	RES1	0.000	
11	 C22	-0.167	50.808	-85.056	C.2	1	RES1	0.000	
12	 C23	0.663	51.344	-84.070	C.2	1	RES1	0.000	
13	 C24	1.352	52.504	-84.244	C.2	1	RES1	0.000	
14	 C25	2.104	52.797	-83.005	C.2	1	RES1	0.000	
15	 C26	2.262	51.646	-80.759	C.3	1	RES1	0.000	
16	 C27	3.734	51.281	-80.623	C.3	1	RES1	0.000	
17	 C28	4.132	51.218	-79.163	C.3	1	RES1	0.000	
18	 C29	3.258	50.262	-78.411	C.3	1	RES1	0.000	
19	 C30	1.398	50.618	-79.989	C.2	1	RES1	0.000	
20	 C31	0.901	50.871	-82.704	C.2	1	RES1	0.000	
@<TRIPOS>BOND
1 1 8 1
2 8 9 ar
3 8 13 ar
4 9 10 ar
5 10 11 ar
6 11 12 ar
7 12 13 ar
8 12 20 ar
9 13 14 ar
10 2 14 ar
11 3 14 2
12 2 15 1
13 15 16 1
14 15 19 1
15 16 17 1
16 17 18 1
17 4 18 1
18 5 18 1
19 4 19 1
20 6 19 2
21 2 20 ar
22 7 20 2
@<TRIPOS>SUBSTRUCTURE
1	RES1	1	GROUP	1 ****	RES
