# created with PyMOL 2.5.2
@<TRIPOS>MOLECULE
BCL2_4W9H_E3ligase
34 36 1                 
SMALL
USER_CHARGES
@<TRIPOS>ATOM
1	  C1	12.102	49.867	80.568	C.3	1	RES1	0.000	
2	  N1	11.238	53.108	87.735	N.pl3	1	RES1	0.000	
3	  O1	12.433	51.914	89.297	O.2	1	RES1	0.000	
4	  C2	13.463	50.356	80.930	C.2	1	RES1	0.000	
5	  N2	12.727	54.142	90.895	N.pl3	1	RES1	0.000	
6	  O2	14.129	56.750	90.295	O.3	1	RES1	0.000	
7	  C3	13.853	50.960	82.135	C.2	1	RES1	0.000	
8	  N3	11.077	54.510	94.061	N.pl3	1	RES1	0.000	
9	  O3	10.569	53.654	91.426	O.2	1	RES1	0.000	
10	  C4	13.060	51.249	83.336	C.2	1	RES1	0.000	
11	  O4	12.418	56.257	94.713	O.2	1	RES1	0.000	
12	  S4	15.517	51.388	82.007	S.2	1	RES1	0.000	
13	  C5	12.189	50.273	83.846	C.2	1	RES1	0.000	
14	  C6	11.455	50.521	84.998	C.2	1	RES1	0.000	
15	  C7	11.540	51.762	85.685	C.2	1	RES1	0.000	
16	  C8	10.717	51.994	86.959	C.3	1	RES1	0.000	
17	  C9	9.222	52.079	86.745	C.3	1	RES1	0.000	
18	 C10	12.067	52.970	88.833	C.2	1	RES1	0.000	
19	 C11	12.419	54.353	89.471	C.3	1	RES1	0.000	
20	 N11	14.464	50.188	79.994	N.2	1	RES1	0.000	
21	 C12	13.707	54.861	88.835	C.3	1	RES1	0.000	
22	 C13	14.525	55.392	90.011	C.3	1	RES1	0.000	
23	 C14	14.129	54.479	91.168	C.3	1	RES1	0.000	
24	 C15	11.719	53.852	91.817	C.2	1	RES1	0.000	
25	 C16	12.103	53.765	93.309	C.3	1	RES1	0.000	
26	 C17	11.332	55.690	94.685	C.2	1	RES1	0.000	
27	 C18	10.108	56.283	95.308	C.3	1	RES1	0.000	
28	 C73	12.278	52.291	93.793	C.3	1	RES1	0.000	
29	 C74	10.897	51.569	93.762	C.3	1	RES1	0.000	
30	 C75	12.761	52.230	95.245	C.3	1	RES1	0.000	
31	 C76	13.251	51.482	92.915	C.3	1	RES1	0.000	
32	 C77	12.404	52.722	85.133	C.2	1	RES1	0.000	
33	 C78	13.144	52.476	83.994	C.2	1	RES1	0.000	
34	 C79	15.575	50.703	80.475	C.2	1	RES1	0.000	
@<TRIPOS>BOND
1 1 4 1
2 2 16 1
3 2 18 1
4 3 18 2
5 4 7 ar
6 7 10 1
7 7 12 ar
8 10 13 ar
9 10 33 ar
10 12 34 ar
11 13 14 ar
12 14 15 ar
13 15 16 1
14 15 32 ar
15 16 17 1
16 18 19 1
17 5 19 1
18 19 21 1
19 4 20 ar
20 20 34 ar
21 21 22 1
22 6 22 1
23 22 23 1
24 5 23 1
25 5 24 1
26 9 24 2
27 24 25 1
28 8 25 1
29 25 28 1
30 8 26 1
31 11 26 2
32 26 27 1
33 28 29 1
34 28 30 1
35 28 31 1
36 32 33 ar
@<TRIPOS>SUBSTRUCTURE
1	RES1	1	GROUP	1 ****	RES
