# created with PyMOL 2.5.2
@<TRIPOS>MOLECULE
BCL2_4W9H_E3ligase
34 36 1                 
SMALL
USER_CHARGES
@<TRIPOS>ATOM
1	  C1	12.188	49.911	80.536	C.3	1	RES1	0.000	
2	  N1	11.151	53.102	87.697	N.pl3	1	RES1	0.000	
3	  O1	12.314	51.798	89.164	O.2	1	RES1	0.000	
4	  C2	13.508	50.432	80.938	C.2	1	RES1	0.000	
5	  N2	12.807	54.076	90.907	N.pl3	1	RES1	0.000	
6	  O2	14.060	56.687	89.980	O.3	1	RES1	0.000	
7	  C3	13.840	51.021	82.154	C.2	1	RES1	0.000	
8	  N3	11.099	54.524	94.020	N.pl3	1	RES1	0.000	
9	  O3	10.616	53.650	91.481	O.2	1	RES1	0.000	
10	  C4	13.028	51.301	83.345	C.2	1	RES1	0.000	
11	  O4	12.419	56.289	94.677	O.2	1	RES1	0.000	
12	  S4	15.546	51.382	82.146	S.2	1	RES1	0.000	
13	  C5	12.123	50.306	83.841	C.2	1	RES1	0.000	
14	  C6	11.371	50.541	84.974	C.2	1	RES1	0.000	
15	  C7	11.457	51.777	85.641	C.2	1	RES1	0.000	
16	  C8	10.607	51.986	86.941	C.3	1	RES1	0.000	
17	  C9	9.148	52.248	86.602	C.3	1	RES1	0.000	
18	 C10	12.014	52.891	88.777	C.2	1	RES1	0.000	
19	 C11	12.469	54.157	89.471	C.3	1	RES1	0.000	
20	 N11	14.534	50.294	80.035	N.2	1	RES1	0.000	
21	 C12	13.812	54.592	88.829	C.3	1	RES1	0.000	
22	 C13	14.541	55.341	89.933	C.3	1	RES1	0.000	
23	 C14	14.135	54.580	91.199	C.3	1	RES1	0.000	
24	 C15	11.773	53.821	91.828	C.2	1	RES1	0.000	
25	 C16	12.132	53.755	93.333	C.3	1	RES1	0.000	
26	 C17	11.344	55.737	94.645	C.2	1	RES1	0.000	
27	 C18	10.091	56.353	95.217	C.3	1	RES1	0.000	
28	 C74	12.285	52.320	93.884	C.3	1	RES1	0.000	
29	 C75	10.923	51.594	93.877	C.3	1	RES1	0.000	
30	 C76	12.786	52.331	95.345	C.3	1	RES1	0.000	
31	 C77	13.281	51.439	93.059	C.3	1	RES1	0.000	
32	 C78	12.337	52.726	85.175	C.2	1	RES1	0.000	
33	 C79	13.131	52.499	84.038	C.2	1	RES1	0.000	
34	 C80	15.646	50.805	80.555	C.2	1	RES1	0.000	
@<TRIPOS>BOND
1 1 4 1
2 2 16 1
3 2 18 1
4 3 18 2
5 4 7 ar
6 7 10 1
7 7 12 ar
8 10 13 ar
9 10 33 ar
10 12 34 ar
11 13 14 ar
12 14 15 ar
13 15 16 1
14 15 32 ar
15 16 17 1
16 18 19 1
17 5 19 1
18 19 21 1
19 4 20 ar
20 20 34 ar
21 21 22 1
22 6 22 1
23 22 23 1
24 5 23 1
25 5 24 1
26 9 24 2
27 24 25 1
28 8 25 1
29 25 28 1
30 8 26 1
31 11 26 2
32 26 27 1
33 28 29 1
34 28 30 1
35 28 31 1
36 32 33 ar
@<TRIPOS>SUBSTRUCTURE
1	RES1	1	GROUP	1 ****	RES
