# created with PyMOL 2.5.2
@<TRIPOS>MOLECULE
BCL2_4W9H_E3ligase
34 36 1                 
SMALL
USER_CHARGES
@<TRIPOS>ATOM
1	  C1	12.356	49.922	80.487	C.3	1	RES1	0.000	
2	  N1	10.999	52.837	87.762	N.pl3	1	RES1	0.000	
3	  O1	12.471	51.870	89.219	O.2	1	RES1	0.000	
4	  C2	13.625	50.567	80.927	C.2	1	RES1	0.000	
5	  N2	12.505	54.160	90.860	N.pl3	1	RES1	0.000	
6	  O2	15.460	55.621	89.473	O.3	1	RES1	0.000	
7	  C3	13.874	51.141	82.190	C.2	1	RES1	0.000	
8	  N3	11.105	54.600	94.110	N.pl3	1	RES1	0.000	
9	  O3	10.381	53.783	91.630	O.2	1	RES1	0.000	
10	  C4	13.016	51.305	83.385	C.2	1	RES1	0.000	
11	  O4	12.452	56.392	94.654	O.2	1	RES1	0.000	
12	  S4	15.509	51.707	82.206	S.2	1	RES1	0.000	
13	  C5	12.256	50.216	83.856	C.2	1	RES1	0.000	
14	  C6	11.487	50.337	85.020	C.2	1	RES1	0.000	
15	  C7	11.450	51.535	85.721	C.2	1	RES1	0.000	
16	  C8	10.643	51.619	87.003	C.3	1	RES1	0.000	
17	  C9	9.134	51.548	86.810	C.3	1	RES1	0.000	
18	 C10	11.879	52.867	88.773	C.2	1	RES1	0.000	
19	 C11	12.102	54.238	89.451	C.3	1	RES1	0.000	
20	 N11	14.672	50.614	80.039	N.2	1	RES1	0.000	
21	 C12	13.216	54.996	88.762	C.3	1	RES1	0.000	
22	 C13	14.425	54.628	89.579	C.3	1	RES1	0.000	
23	 C14	13.889	54.595	91.007	C.3	1	RES1	0.000	
24	 C15	11.582	53.919	91.874	C.2	1	RES1	0.000	
25	 C16	12.094	53.854	93.316	C.3	1	RES1	0.000	
26	 C17	11.383	55.830	94.708	C.2	1	RES1	0.000	
27	 C18	10.199	56.431	95.377	C.3	1	RES1	0.000	
28	 C75	12.309	52.415	93.884	C.3	1	RES1	0.000	
29	 C76	10.964	51.712	94.082	C.3	1	RES1	0.000	
30	 C77	12.968	52.512	95.269	C.3	1	RES1	0.000	
31	 C78	13.188	51.535	92.999	C.3	1	RES1	0.000	
32	 C79	12.229	52.580	85.285	C.2	1	RES1	0.000	
33	 C80	12.999	52.481	84.125	C.2	1	RES1	0.000	
34	 C81	15.683	51.190	80.602	C.2	1	RES1	0.000	
@<TRIPOS>BOND
1 1 4 1
2 2 16 1
3 2 18 1
4 3 18 2
5 4 7 ar
6 7 10 1
7 7 12 ar
8 10 13 ar
9 10 33 ar
10 12 34 ar
11 13 14 ar
12 14 15 ar
13 15 16 1
14 15 32 ar
15 16 17 1
16 18 19 1
17 5 19 1
18 19 21 1
19 4 20 ar
20 20 34 ar
21 21 22 1
22 6 22 1
23 22 23 1
24 5 23 1
25 5 24 1
26 9 24 2
27 24 25 1
28 8 25 1
29 25 28 1
30 8 26 1
31 11 26 2
32 26 27 1
33 28 29 1
34 28 30 1
35 28 31 1
36 32 33 ar
@<TRIPOS>SUBSTRUCTURE
1	RES1	1	GROUP	1 ****	RES
