# created with PyMOL 2.5.2
@<TRIPOS>MOLECULE
BCL2_4W9H_E3ligase
34 36 1                 
SMALL
USER_CHARGES
@<TRIPOS>ATOM
1	  C1	12.191	49.829	80.569	C.3	1	RES1	0.000	
2	  N1	11.198	53.091	87.683	N.pl3	1	RES1	0.000	
3	  O1	12.270	51.779	89.251	O.2	1	RES1	0.000	
4	  C2	13.493	50.394	80.971	C.2	1	RES1	0.000	
5	  N2	12.798	54.072	90.906	N.pl3	1	RES1	0.000	
6	  O2	14.062	56.714	89.979	O.3	1	RES1	0.000	
7	  C3	13.866	50.991	82.190	C.2	1	RES1	0.000	
8	  N3	11.094	54.499	94.010	N.pl3	1	RES1	0.000	
9	  O3	10.626	53.652	91.429	O.2	1	RES1	0.000	
10	  C4	13.053	51.255	83.383	C.2	1	RES1	0.000	
11	  O4	12.469	56.257	94.694	O.2	1	RES1	0.000	
12	  S4	15.528	51.439	82.161	S.2	1	RES1	0.000	
13	  C5	13.105	52.488	84.046	C.2	1	RES1	0.000	
14	  C6	12.310	52.753	85.157	C.2	1	RES1	0.000	
15	  C7	11.423	51.770	85.647	C.2	1	RES1	0.000	
16	  C8	10.611	52.001	86.926	C.3	1	RES1	0.000	
17	  C9	9.108	52.208	86.705	C.3	1	RES1	0.000	
18	 C10	12.043	52.908	88.791	C.2	1	RES1	0.000	
19	 C11	12.507	54.191	89.463	C.3	1	RES1	0.000	
20	 N11	14.542	50.346	80.044	N.2	1	RES1	0.000	
21	 C12	13.830	54.637	88.809	C.3	1	RES1	0.000	
22	 C13	14.535	55.362	89.934	C.3	1	RES1	0.000	
23	 C14	14.136	54.563	91.174	C.3	1	RES1	0.000	
24	 C15	11.778	53.840	91.799	C.2	1	RES1	0.000	
25	 C16	12.128	53.771	93.318	C.3	1	RES1	0.000	
26	 C17	11.352	55.717	94.638	C.2	1	RES1	0.000	
27	 C18	10.113	56.350	95.242	C.3	1	RES1	0.000	
28	 C76	12.291	52.298	93.854	C.3	1	RES1	0.000	
29	 C77	10.888	51.594	93.792	C.3	1	RES1	0.000	
30	 C78	12.720	52.297	95.329	C.3	1	RES1	0.000	
31	 C79	13.276	51.450	93.043	C.3	1	RES1	0.000	
32	 C80	11.370	50.550	84.990	C.2	1	RES1	0.000	
33	 C81	12.136	50.289	83.870	C.2	1	RES1	0.000	
34	 C82	15.624	50.864	80.537	C.2	1	RES1	0.000	
@<TRIPOS>BOND
1 1 4 1
2 2 16 1
3 2 18 1
4 3 18 2
5 4 7 ar
6 7 10 1
7 7 12 ar
8 10 13 ar
9 10 33 ar
10 12 34 ar
11 13 14 ar
12 14 15 ar
13 15 16 1
14 15 32 ar
15 16 17 1
16 18 19 1
17 5 19 1
18 19 21 1
19 4 20 ar
20 20 34 ar
21 21 22 1
22 6 22 1
23 22 23 1
24 5 23 1
25 5 24 1
26 9 24 2
27 24 25 1
28 8 25 1
29 25 28 1
30 8 26 1
31 11 26 2
32 26 27 1
33 28 29 1
34 28 30 1
35 28 31 1
36 32 33 ar
@<TRIPOS>SUBSTRUCTURE
1	RES1	1	GROUP	1 ****	RES
