# created with PyMOL 2.5.2
@<TRIPOS>MOLECULE
BCL2_4W9H_E3ligase
34 36 1                 
SMALL
USER_CHARGES
@<TRIPOS>ATOM
1	  C1	12.207	49.830	80.484	C.3	1	RES1	0.000	
2	  N1	11.168	53.105	87.605	N.pl3	1	RES1	0.000	
3	  O1	12.282	51.844	89.148	O.2	1	RES1	0.000	
4	  C2	13.523	50.349	80.853	C.2	1	RES1	0.000	
5	  N2	12.534	54.071	90.879	N.pl3	1	RES1	0.000	
6	  O2	14.042	56.610	90.318	O.3	1	RES1	0.000	
7	  C3	13.886	50.953	82.095	C.2	1	RES1	0.000	
8	  N3	11.165	54.573	94.146	N.pl3	1	RES1	0.000	
9	  O3	10.403	53.724	91.681	O.2	1	RES1	0.000	
10	  C4	13.101	51.221	83.272	C.2	1	RES1	0.000	
11	  O4	12.515	56.409	94.605	O.2	1	RES1	0.000	
12	  S4	15.569	51.375	82.023	S.2	1	RES1	0.000	
13	  C5	13.179	52.457	83.935	C.2	1	RES1	0.000	
14	  C6	12.380	52.703	85.078	C.2	1	RES1	0.000	
15	  C7	11.525	51.748	85.558	C.2	1	RES1	0.000	
16	  C8	10.657	51.978	86.812	C.3	1	RES1	0.000	
17	  C9	9.194	52.223	86.432	C.3	1	RES1	0.000	
18	 C10	11.961	52.956	88.723	C.2	1	RES1	0.000	
19	 C11	12.327	54.225	89.459	C.3	1	RES1	0.000	
20	 N11	14.549	50.297	79.928	N.2	1	RES1	0.000	
21	 C12	13.702	54.698	88.921	C.3	1	RES1	0.000	
22	 C13	14.425	55.249	90.110	C.3	1	RES1	0.000	
23	 C14	13.914	54.359	91.246	C.3	1	RES1	0.000	
24	 C15	11.591	53.860	91.908	C.2	1	RES1	0.000	
25	 C16	12.126	53.814	93.366	C.3	1	RES1	0.000	
26	 C17	11.446	55.797	94.720	C.2	1	RES1	0.000	
27	 C18	10.290	56.345	95.495	C.3	1	RES1	0.000	
28	 C77	12.346	52.362	93.889	C.3	1	RES1	0.000	
29	 C78	11.022	51.577	94.071	C.3	1	RES1	0.000	
30	 C79	13.058	52.404	95.265	C.3	1	RES1	0.000	
31	 C80	13.269	51.548	92.931	C.3	1	RES1	0.000	
32	 C81	11.443	50.501	84.933	C.2	1	RES1	0.000	
33	 C82	12.212	50.251	83.789	C.2	1	RES1	0.000	
34	 C83	15.645	50.778	80.419	C.2	1	RES1	0.000	
@<TRIPOS>BOND
1 1 4 1
2 2 16 1
3 2 18 1
4 3 18 2
5 4 7 ar
6 7 10 1
7 7 12 ar
8 10 13 ar
9 10 33 ar
10 12 34 ar
11 13 14 ar
12 14 15 ar
13 15 16 1
14 15 32 ar
15 16 17 1
16 18 19 1
17 5 19 1
18 19 21 1
19 4 20 ar
20 20 34 ar
21 21 22 1
22 6 22 1
23 22 23 1
24 5 23 1
25 5 24 1
26 9 24 2
27 24 25 1
28 8 25 1
29 25 28 1
30 8 26 1
31 11 26 2
32 26 27 1
33 28 29 1
34 28 30 1
35 28 31 1
36 32 33 ar
@<TRIPOS>SUBSTRUCTURE
1	RES1	1	GROUP	1 ****	RES
