# created with PyMOL 2.5.2
@<TRIPOS>MOLECULE
BCL2_4W9H_E3ligase
34 36 1                 
SMALL
USER_CHARGES
@<TRIPOS>ATOM
1	  C1	12.167	49.836	80.584	C.3	1	RES1	0.000	
2	  N1	11.186	53.091	87.719	N.pl3	1	RES1	0.000	
3	  O1	12.394	51.836	89.194	O.2	1	RES1	0.000	
4	  C2	13.484	50.405	80.964	C.2	1	RES1	0.000	
5	  N2	12.758	54.099	90.880	N.pl3	1	RES1	0.000	
6	  O2	14.154	56.685	90.130	O.3	1	RES1	0.000	
7	  C3	13.852	50.979	82.171	C.2	1	RES1	0.000	
8	  N3	11.077	54.525	94.015	N.pl3	1	RES1	0.000	
9	  O3	10.586	53.643	91.416	O.2	1	RES1	0.000	
10	  C4	13.070	51.231	83.401	C.2	1	RES1	0.000	
11	  O4	12.435	56.239	94.691	O.2	1	RES1	0.000	
12	  S4	15.533	51.413	82.100	S.2	1	RES1	0.000	
13	  C5	13.144	52.442	84.048	C.2	1	RES1	0.000	
14	  C6	12.370	52.715	85.182	C.2	1	RES1	0.000	
15	  C7	11.481	51.750	85.695	C.2	1	RES1	0.000	
16	  C8	10.665	52.010	86.951	C.3	1	RES1	0.000	
17	  C9	9.183	52.188	86.641	C.3	1	RES1	0.000	
18	 C10	11.999	52.948	88.810	C.2	1	RES1	0.000	
19	 C11	12.442	54.259	89.450	C.3	1	RES1	0.000	
20	 N11	14.487	50.358	80.008	N.2	1	RES1	0.000	
21	 C12	13.738	54.727	88.807	C.3	1	RES1	0.000	
22	 C13	14.548	55.332	89.955	C.3	1	RES1	0.000	
23	 C14	14.131	54.480	91.151	C.3	1	RES1	0.000	
24	 C15	11.730	53.845	91.790	C.2	1	RES1	0.000	
25	 C16	12.105	53.749	93.285	C.3	1	RES1	0.000	
26	 C17	11.366	55.720	94.645	C.2	1	RES1	0.000	
27	 C18	10.135	56.358	95.256	C.3	1	RES1	0.000	
28	 C78	12.265	52.302	93.833	C.3	1	RES1	0.000	
29	 C79	10.897	51.576	93.852	C.3	1	RES1	0.000	
30	 C80	12.787	52.358	95.272	C.3	1	RES1	0.000	
31	 C81	13.238	51.457	92.992	C.3	1	RES1	0.000	
32	 C82	11.400	50.511	85.024	C.2	1	RES1	0.000	
33	 C83	12.152	50.268	83.883	C.2	1	RES1	0.000	
34	 C84	15.599	50.871	80.493	C.2	1	RES1	0.000	
@<TRIPOS>BOND
1 1 4 1
2 2 16 1
3 2 18 1
4 3 18 2
5 4 7 ar
6 7 10 1
7 7 12 ar
8 10 13 ar
9 10 33 ar
10 12 34 ar
11 13 14 ar
12 14 15 ar
13 15 16 1
14 15 32 ar
15 16 17 1
16 18 19 1
17 5 19 1
18 19 21 1
19 4 20 ar
20 20 34 ar
21 21 22 1
22 6 22 1
23 22 23 1
24 5 23 1
25 5 24 1
26 9 24 2
27 24 25 1
28 8 25 1
29 25 28 1
30 8 26 1
31 11 26 2
32 26 27 1
33 28 29 1
34 28 30 1
35 28 31 1
36 32 33 ar
@<TRIPOS>SUBSTRUCTURE
1	RES1	1	GROUP	1 ****	RES
