# created with PyMOL 2.5.2
@<TRIPOS>MOLECULE
BCL2_4W9H_E3ligase
34 36 1                 
SMALL
USER_CHARGES
@<TRIPOS>ATOM
1	  C1	12.266	49.933	80.582	C.3	1	RES1	0.000	
2	  N1	11.052	52.892	87.765	N.pl3	1	RES1	0.000	
3	  O1	12.541	51.937	89.201	O.2	1	RES1	0.000	
4	  C2	13.543	50.536	80.981	C.2	1	RES1	0.000	
5	  N2	12.475	54.183	90.830	N.pl3	1	RES1	0.000	
6	  O2	15.420	55.728	89.546	O.3	1	RES1	0.000	
7	  C3	13.889	51.097	82.209	C.2	1	RES1	0.000	
8	  N3	11.088	54.589	94.108	N.pl3	1	RES1	0.000	
9	  O3	10.362	53.740	91.586	O.2	1	RES1	0.000	
10	  C4	13.120	51.224	83.427	C.2	1	RES1	0.000	
11	  O4	12.484	56.368	94.702	O.2	1	RES1	0.000	
12	  S4	15.488	51.691	82.101	S.2	1	RES1	0.000	
13	  C5	13.060	52.450	84.110	C.2	1	RES1	0.000	
14	  C6	12.295	52.590	85.286	C.2	1	RES1	0.000	
15	  C7	11.545	51.539	85.794	C.2	1	RES1	0.000	
16	  C8	10.701	51.682	87.043	C.3	1	RES1	0.000	
17	  C9	9.199	51.600	86.744	C.3	1	RES1	0.000	
18	 C10	11.921	52.925	88.825	C.2	1	RES1	0.000	
19	 C11	12.075	54.317	89.444	C.3	1	RES1	0.000	
20	 N11	14.544	50.558	79.994	N.2	1	RES1	0.000	
21	 C12	13.204	55.128	88.799	C.3	1	RES1	0.000	
22	 C13	14.420	54.717	89.607	C.3	1	RES1	0.000	
23	 C14	13.884	54.538	91.011	C.3	1	RES1	0.000	
24	 C15	11.529	53.942	91.876	C.2	1	RES1	0.000	
25	 C16	12.044	53.848	93.312	C.3	1	RES1	0.000	
26	 C17	11.380	55.813	94.723	C.2	1	RES1	0.000	
27	 C18	10.218	56.406	95.449	C.3	1	RES1	0.000	
28	 C79	12.262	52.388	93.817	C.3	1	RES1	0.000	
29	 C80	10.900	51.673	93.931	C.3	1	RES1	0.000	
30	 C81	12.920	52.383	95.211	C.3	1	RES1	0.000	
31	 C82	13.165	51.547	92.851	C.3	1	RES1	0.000	
32	 C83	11.595	50.307	85.096	C.2	1	RES1	0.000	
33	 C84	12.373	50.185	83.929	C.2	1	RES1	0.000	
34	 C85	15.606	51.159	80.487	C.2	1	RES1	0.000	
@<TRIPOS>BOND
1 1 4 1
2 2 16 1
3 2 18 1
4 3 18 2
5 4 7 ar
6 7 10 1
7 7 12 ar
8 10 13 ar
9 10 33 ar
10 12 34 ar
11 13 14 ar
12 14 15 ar
13 15 16 1
14 15 32 ar
15 16 17 1
16 18 19 1
17 5 19 1
18 19 21 1
19 4 20 ar
20 20 34 ar
21 21 22 1
22 6 22 1
23 22 23 1
24 5 23 1
25 5 24 1
26 9 24 2
27 24 25 1
28 8 25 1
29 25 28 1
30 8 26 1
31 11 26 2
32 26 27 1
33 28 29 1
34 28 30 1
35 28 31 1
36 32 33 ar
@<TRIPOS>SUBSTRUCTURE
1	RES1	1	GROUP	1 ****	RES
