# created with PyMOL 2.5.2
@<TRIPOS>MOLECULE
BCL2_4W9H_E3ligase
34 36 1                 
SMALL
USER_CHARGES
@<TRIPOS>ATOM
1	  C1	12.284	49.893	80.353	C.3	1	RES1	0.000	
2	  N1	11.239	53.064	87.584	N.pl3	1	RES1	0.000	
3	  O1	12.370	51.826	89.162	O.2	1	RES1	0.000	
4	  C2	13.610	50.423	80.832	C.2	1	RES1	0.000	
5	  N2	12.596	54.064	90.913	N.pl3	1	RES1	0.000	
6	  O2	14.152	56.582	90.383	O.3	1	RES1	0.000	
7	  C3	13.917	50.974	82.066	C.2	1	RES1	0.000	
8	  N3	11.008	54.556	94.108	N.pl3	1	RES1	0.000	
9	  O3	10.455	53.715	91.576	O.2	1	RES1	0.000	
10	  C4	13.064	51.234	83.240	C.2	1	RES1	0.000	
11	  O4	12.216	56.440	94.683	O.2	1	RES1	0.000	
12	  S4	15.567	51.439	82.061	S.2	1	RES1	0.000	
13	  C5	13.160	52.465	83.919	C.2	1	RES1	0.000	
14	  C6	12.384	52.698	85.048	C.2	1	RES1	0.000	
15	  C7	11.539	51.713	85.563	C.2	1	RES1	0.000	
16	  C8	10.718	51.945	86.830	C.3	1	RES1	0.000	
17	  C9	9.231	52.127	86.519	C.3	1	RES1	0.000	
18	 C10	12.041	52.919	88.715	C.2	1	RES1	0.000	
19	 C11	12.401	54.214	89.442	C.3	1	RES1	0.000	
20	 N11	14.680	50.316	79.968	N.2	1	RES1	0.000	
21	 C12	13.739	54.692	88.913	C.3	1	RES1	0.000	
22	 C13	14.514	55.205	90.135	C.3	1	RES1	0.000	
23	 C14	13.964	54.346	91.261	C.3	1	RES1	0.000	
24	 C15	11.633	53.866	91.890	C.2	1	RES1	0.000	
25	 C16	12.043	53.850	93.376	C.3	1	RES1	0.000	
26	 C17	11.185	55.775	94.708	C.2	1	RES1	0.000	
27	 C18	9.933	56.257	95.430	C.3	1	RES1	0.000	
28	 C76	12.294	52.409	93.932	C.3	1	RES1	0.000	
29	 C77	12.682	52.428	95.416	C.3	1	RES1	0.000	
30	 C78	13.448	51.729	93.152	C.3	1	RES1	0.000	
31	 C79	11.047	51.516	93.745	C.3	1	RES1	0.000	
32	 C80	11.460	50.492	84.892	C.2	1	RES1	0.000	
33	 C81	12.216	50.230	83.743	C.2	1	RES1	0.000	
34	 C82	15.742	50.820	80.483	C.2	1	RES1	0.000	
@<TRIPOS>BOND
1 1 4 1
2 2 16 1
3 2 18 1
4 3 18 2
5 4 7 ar
6 7 10 1
7 7 12 ar
8 10 13 ar
9 10 33 ar
10 12 34 ar
11 13 14 ar
12 14 15 ar
13 15 16 1
14 15 32 ar
15 16 17 1
16 18 19 1
17 5 19 1
18 19 21 1
19 4 20 ar
20 20 34 ar
21 21 22 1
22 6 22 1
23 22 23 1
24 5 23 1
25 5 24 1
26 9 24 2
27 24 25 1
28 8 25 1
29 25 28 1
30 8 26 1
31 11 26 2
32 26 27 1
33 28 29 1
34 28 30 1
35 28 31 1
36 32 33 ar
@<TRIPOS>SUBSTRUCTURE
1	RES1	1	GROUP	1 ****	RES
