# created with PyMOL 2.5.2
@<TRIPOS>MOLECULE
BCL2_4W9H_E3ligase
34 36 1                 
SMALL
USER_CHARGES
@<TRIPOS>ATOM
1	  C1	12.273	49.861	80.408	C.3	1	RES1	0.000	
2	  N1	11.257	53.106	87.585	N.pl3	1	RES1	0.000	
3	  O1	12.331	51.818	89.134	O.2	1	RES1	0.000	
4	  C2	13.591	50.400	80.820	C.2	1	RES1	0.000	
5	  N2	12.590	54.060	90.906	N.pl3	1	RES1	0.000	
6	  O2	14.080	56.579	90.357	O.3	1	RES1	0.000	
7	  C3	13.917	50.954	82.051	C.2	1	RES1	0.000	
8	  N3	10.993	54.535	94.091	N.pl3	1	RES1	0.000	
9	  O3	10.427	53.666	91.613	O.2	1	RES1	0.000	
10	  C4	13.124	51.189	83.276	C.2	1	RES1	0.000	
11	  O4	12.227	56.428	94.665	O.2	1	RES1	0.000	
12	  S4	15.610	51.386	82.049	S.2	1	RES1	0.000	
13	  C5	13.231	52.413	83.933	C.2	1	RES1	0.000	
14	  C6	12.440	52.683	85.077	C.2	1	RES1	0.000	
15	  C7	11.554	51.751	85.580	C.2	1	RES1	0.000	
16	  C8	10.713	52.002	86.810	C.3	1	RES1	0.000	
17	  C9	9.250	52.218	86.460	C.3	1	RES1	0.000	
18	 C10	12.034	52.913	88.711	C.2	1	RES1	0.000	
19	 C11	12.415	54.210	89.471	C.3	1	RES1	0.000	
20	 N11	14.621	50.367	79.880	N.2	1	RES1	0.000	
21	 C12	13.771	54.671	88.934	C.3	1	RES1	0.000	
22	 C13	14.465	55.221	90.167	C.3	1	RES1	0.000	
23	 C14	13.954	54.350	91.287	C.3	1	RES1	0.000	
24	 C15	11.605	53.846	91.895	C.2	1	RES1	0.000	
25	 C16	12.067	53.824	93.385	C.3	1	RES1	0.000	
26	 C17	11.185	55.785	94.688	C.2	1	RES1	0.000	
27	 C18	9.933	56.276	95.383	C.3	1	RES1	0.000	
28	 C76	12.311	52.393	93.952	C.3	1	RES1	0.000	
29	 C77	12.724	52.407	95.431	C.3	1	RES1	0.000	
30	 C78	13.420	51.701	93.134	C.3	1	RES1	0.000	
31	 C79	11.048	51.537	93.803	C.3	1	RES1	0.000	
32	 C80	11.455	50.506	84.884	C.2	1	RES1	0.000	
33	 C81	12.214	50.256	83.746	C.2	1	RES1	0.000	
34	 C82	15.721	50.857	80.431	C.2	1	RES1	0.000	
@<TRIPOS>BOND
1 1 4 1
2 2 16 1
3 2 18 1
4 3 18 2
5 4 7 ar
6 7 10 1
7 7 12 ar
8 10 13 ar
9 10 33 ar
10 12 34 ar
11 13 14 ar
12 14 15 ar
13 15 16 1
14 15 32 ar
15 16 17 1
16 18 19 1
17 5 19 1
18 19 21 1
19 4 20 ar
20 20 34 ar
21 21 22 1
22 6 22 1
23 22 23 1
24 5 23 1
25 5 24 1
26 9 24 2
27 24 25 1
28 8 25 1
29 25 28 1
30 8 26 1
31 11 26 2
32 26 27 1
33 28 29 1
34 28 30 1
35 28 31 1
36 32 33 ar
@<TRIPOS>SUBSTRUCTURE
1	RES1	1	GROUP	1 ****	RES
