# created with PyMOL 2.5.2
@<TRIPOS>MOLECULE
WDR5_4W9H_E3ligase
33 35 1                 
SMALL
USER_CHARGES
@<TRIPOS>ATOM
1	  C1	12.284	49.898	80.580	C.3	1	RES1	0.000	
2	  N1	11.028	52.865	87.765	N.pl3	1	RES1	0.000	
3	  O1	12.580	51.948	89.182	O.2	1	RES1	0.000	
4	  S1	15.497	51.677	82.170	S.2	1	RES1	0.000	
5	  C2	13.570	50.550	80.979	C.2	1	RES1	0.000	
6	  N2	12.502	54.187	90.826	N.pl3	1	RES1	0.000	
7	  O2	15.421	55.727	89.561	O.3	1	RES1	0.000	
8	  C3	13.886	51.102	82.227	C.2	1	RES1	0.000	
9	  N3	11.082	54.589	94.103	N.pl3	1	RES1	0.000	
10	  O3	10.376	53.795	91.575	O.2	1	RES1	0.000	
11	  C4	13.093	51.245	83.439	C.2	1	RES1	0.000	
12	  O4	12.463	56.369	94.614	O.2	1	RES1	0.000	
13	  C5	12.349	50.161	83.944	C.2	1	RES1	0.000	
14	  C6	11.569	50.315	85.087	C.2	1	RES1	0.000	
15	  C7	11.503	51.520	85.772	C.2	1	RES1	0.000	
16	  C8	10.706	51.657	87.053	C.3	1	RES1	0.000	
17	  C9	11.927	52.917	88.810	C.2	1	RES1	0.000	
18	 C10	12.085	54.307	89.432	C.3	1	RES1	0.000	
19	 C11	13.207	55.117	88.820	C.3	1	RES1	0.000	
20	 N11	14.548	50.617	80.024	N.2	1	RES1	0.000	
21	 C12	14.426	54.709	89.614	C.3	1	RES1	0.000	
22	 C13	13.879	54.520	91.023	C.3	1	RES1	0.000	
23	 C14	11.535	53.940	91.844	C.2	1	RES1	0.000	
24	 C15	12.046	53.861	93.302	C.3	1	RES1	0.000	
25	 C16	11.398	55.805	94.703	C.2	1	RES1	0.000	
26	 C17	10.221	56.411	95.462	C.3	1	RES1	0.000	
27	 C55	12.251	52.373	93.806	C.3	1	RES1	0.000	
28	 C56	10.930	51.609	93.983	C.3	1	RES1	0.000	
29	 C57	12.979	52.387	95.159	C.3	1	RES1	0.000	
30	 C58	13.137	51.598	92.829	C.3	1	RES1	0.000	
31	 C59	12.256	52.593	85.282	C.2	1	RES1	0.000	
32	 C60	13.016	52.466	84.125	C.2	1	RES1	0.000	
33	 C61	15.621	51.175	80.540	C.2	1	RES1	0.000	
@<TRIPOS>BOND
1 1 5 1
2 2 16 1
3 2 17 1
4 3 17 2
5 4 8 ar
6 4 33 ar
7 5 8 ar
8 8 11 1
9 11 13 ar
10 11 32 ar
11 13 14 ar
12 14 15 ar
13 15 16 1
14 6 18 1
15 17 18 1
16 18 19 1
17 19 21 1
18 5 20 ar
19 20 33 ar
20 7 21 1
21 21 22 1
22 6 22 1
23 6 23 1
24 10 23 2
25 23 24 1
26 9 24 1
27 24 27 1
28 9 25 1
29 12 25 2
30 25 26 1
31 27 28 1
32 27 29 1
33 27 30 1
34 15 31 ar
35 31 32 ar
@<TRIPOS>SUBSTRUCTURE
1	RES1	1	GROUP	1 ****	RES
