# created with PyMOL 2.5.2
@<TRIPOS>MOLECULE
BRD4_6H0G_E3ligase
20 22 1                 
SMALL
USER_CHARGES
@<TRIPOS>ATOM
1	  N3	1.940	54.427	-85.623	N.pl3	1	RES1	0.000	
2	  N4	1.738	51.829	-82.095	N.2	1	RES1	0.000	
3	  O4	2.813	53.772	-82.831	O.2	1	RES1	0.000	
4	  N5	2.003	50.045	-78.884	N.pl3	1	RES1	0.000	
5	  O5	3.674	49.643	-77.433	O.3	1	RES1	0.000	
6	  O6	0.194	50.459	-80.222	O.2	1	RES1	0.000	
7	  O7	0.455	49.853	-82.231	O.2	1	RES1	0.000	
8	 C20	1.320	53.213	-85.455	C.2	1	RES1	0.000	
9	 C21	0.511	52.654	-86.453	C.2	1	RES1	0.000	
10	 C22	-0.165	51.452	-86.281	C.2	1	RES1	0.000	
11	 C23	-0.109	50.769	-85.061	C.2	1	RES1	0.000	
12	 C24	0.668	51.343	-84.047	C.2	1	RES1	0.000	
13	 C25	1.360	52.488	-84.238	C.2	1	RES1	0.000	
14	 C26	2.067	52.806	-83.002	C.2	1	RES1	0.000	
15	 C27	2.237	51.684	-80.721	C.3	1	RES1	0.000	
16	 C28	3.716	51.265	-80.662	C.3	1	RES1	0.000	
17	 C29	4.151	51.161	-79.218	C.3	1	RES1	0.000	
18	 C30	3.258	50.198	-78.431	C.3	1	RES1	0.000	
19	 C31	1.379	50.667	-79.974	C.2	1	RES1	0.000	
20	 C32	0.913	50.865	-82.703	C.2	1	RES1	0.000	
@<TRIPOS>BOND
1 1 8 1
2 8 9 ar
3 8 13 ar
4 9 10 ar
5 10 11 ar
6 11 12 ar
7 12 13 ar
8 12 20 ar
9 13 14 ar
10 2 14 ar
11 3 14 2
12 2 15 1
13 15 16 1
14 15 19 1
15 16 17 1
16 17 18 1
17 4 18 1
18 5 18 1
19 4 19 1
20 6 19 2
21 2 20 ar
22 7 20 2
@<TRIPOS>SUBSTRUCTURE
1	RES1	1	GROUP	1 ****	RES
