# created with PyMOL 2.5.2
@<TRIPOS>MOLECULE
WDR5_4W9H_E3ligase
33 35 1                 
SMALL
USER_CHARGES
@<TRIPOS>ATOM
1	  C1	12.217	49.751	80.412	C.3	1	RES1	0.000	
2	  N1	11.343	53.169	87.571	N.pl3	1	RES1	0.000	
3	  O1	12.458	51.883	89.123	O.2	1	RES1	0.000	
4	  S1	15.565	51.382	81.966	S.2	1	RES1	0.000	
5	  C2	13.531	50.333	80.801	C.2	1	RES1	0.000	
6	  N2	12.576	54.080	90.915	N.pl3	1	RES1	0.000	
7	  O2	14.036	56.658	90.488	O.3	1	RES1	0.000	
8	  C3	13.898	50.923	82.021	C.2	1	RES1	0.000	
9	  N3	10.992	54.524	94.104	N.pl3	1	RES1	0.000	
10	  O3	10.435	53.668	91.604	O.2	1	RES1	0.000	
11	  C4	13.103	51.219	83.226	C.2	1	RES1	0.000	
12	  O4	12.215	56.377	94.679	O.2	1	RES1	0.000	
13	  C5	12.235	50.257	83.767	C.2	1	RES1	0.000	
14	  C6	11.533	50.542	84.931	C.2	1	RES1	0.000	
15	  C7	11.626	51.745	85.584	C.2	1	RES1	0.000	
16	  C8	10.804	52.038	86.800	C.3	1	RES1	0.000	
17	  C9	12.108	52.984	88.699	C.2	1	RES1	0.000	
18	 C10	12.416	54.273	89.493	C.3	1	RES1	0.000	
19	 C11	13.754	54.806	88.989	C.3	1	RES1	0.000	
20	 N11	14.559	50.226	79.895	N.2	1	RES1	0.000	
21	 C12	14.448	55.309	90.239	C.3	1	RES1	0.000	
22	 C13	13.933	54.349	91.329	C.3	1	RES1	0.000	
23	 C14	11.588	53.855	91.901	C.2	1	RES1	0.000	
24	 C15	12.060	53.819	93.378	C.3	1	RES1	0.000	
25	 C16	11.178	55.766	94.694	C.2	1	RES1	0.000	
26	 C17	9.940	56.238	95.436	C.3	1	RES1	0.000	
27	 C57	12.282	52.350	93.910	C.3	1	RES1	0.000	
28	 C58	12.708	52.311	95.385	C.3	1	RES1	0.000	
29	 C59	13.400	51.686	93.074	C.3	1	RES1	0.000	
30	 C60	11.008	51.519	93.756	C.3	1	RES1	0.000	
31	 C61	12.527	52.712	85.061	C.2	1	RES1	0.000	
32	 C62	13.251	52.457	83.909	C.2	1	RES1	0.000	
33	 C63	15.647	50.756	80.364	C.2	1	RES1	0.000	
@<TRIPOS>BOND
1 1 5 1
2 2 16 1
3 2 17 1
4 3 17 2
5 4 8 ar
6 4 33 ar
7 5 8 ar
8 8 11 1
9 11 13 ar
10 11 32 ar
11 13 14 ar
12 14 15 ar
13 15 16 1
14 6 18 1
15 17 18 1
16 18 19 1
17 19 21 1
18 5 20 ar
19 20 33 ar
20 7 21 1
21 21 22 1
22 6 22 1
23 6 23 1
24 10 23 2
25 23 24 1
26 9 24 1
27 24 27 1
28 9 25 1
29 12 25 2
30 25 26 1
31 27 28 1
32 27 29 1
33 27 30 1
34 15 31 ar
35 31 32 ar
@<TRIPOS>SUBSTRUCTURE
1	RES1	1	GROUP	1 ****	RES
