# created with PyMOL 2.5.2
@<TRIPOS>MOLECULE
WDR5_4W9H_E3ligase
33 35 1                 
SMALL
USER_CHARGES
@<TRIPOS>ATOM
1	  C1	12.185	49.970	80.543	C.3	1	RES1	0.000	
2	  N1	11.181	53.021	87.714	N.pl3	1	RES1	0.000	
3	  O1	12.289	51.752	89.266	O.2	1	RES1	0.000	
4	  S1	15.504	51.473	82.152	S.2	1	RES1	0.000	
5	  C2	13.525	50.454	80.970	C.2	1	RES1	0.000	
6	  N2	12.792	54.063	90.863	N.pl3	1	RES1	0.000	
7	  O2	14.086	56.648	89.938	O.3	1	RES1	0.000	
8	  C3	13.852	51.033	82.223	C.2	1	RES1	0.000	
9	  N3	11.111	54.541	94.002	N.pl3	1	RES1	0.000	
10	  O3	10.615	53.729	91.422	O.2	1	RES1	0.000	
11	  C4	13.017	51.255	83.387	C.2	1	RES1	0.000	
12	  O4	12.460	56.266	94.713	O.2	1	RES1	0.000	
13	  C5	12.150	50.293	83.855	C.2	1	RES1	0.000	
14	  C6	11.344	50.511	84.987	C.2	1	RES1	0.000	
15	  C7	11.439	51.704	85.680	C.2	1	RES1	0.000	
16	  C8	10.636	51.938	86.926	C.3	1	RES1	0.000	
17	  C9	12.011	52.848	88.794	C.2	1	RES1	0.000	
18	 C10	12.487	54.173	89.462	C.3	1	RES1	0.000	
19	 C11	13.821	54.583	88.788	C.3	1	RES1	0.000	
20	 N11	14.558	50.380	80.074	N.2	1	RES1	0.000	
21	 C12	14.537	55.309	89.884	C.3	1	RES1	0.000	
22	 C13	14.142	54.553	91.163	C.3	1	RES1	0.000	
23	 C14	11.753	53.857	91.797	C.2	1	RES1	0.000	
24	 C15	12.118	53.782	93.291	C.3	1	RES1	0.000	
25	 C16	11.355	55.733	94.631	C.2	1	RES1	0.000	
26	 C17	10.124	56.363	95.228	C.3	1	RES1	0.000	
27	 C59	12.290	52.310	93.841	C.3	1	RES1	0.000	
28	 C60	10.916	51.598	93.805	C.3	1	RES1	0.000	
29	 C61	12.728	52.356	95.312	C.3	1	RES1	0.000	
30	 C62	13.265	51.484	93.011	C.3	1	RES1	0.000	
31	 C63	12.330	52.684	85.230	C.2	1	RES1	0.000	
32	 C64	13.109	52.479	84.110	C.2	1	RES1	0.000	
33	 C65	15.642	50.872	80.573	C.2	1	RES1	0.000	
@<TRIPOS>BOND
1 1 5 1
2 2 16 1
3 2 17 1
4 3 17 2
5 4 8 ar
6 4 33 ar
7 5 8 ar
8 8 11 1
9 11 13 ar
10 11 32 ar
11 13 14 ar
12 14 15 ar
13 15 16 1
14 6 18 1
15 17 18 1
16 18 19 1
17 19 21 1
18 5 20 ar
19 20 33 ar
20 7 21 1
21 21 22 1
22 6 22 1
23 6 23 1
24 10 23 2
25 23 24 1
26 9 24 1
27 24 27 1
28 9 25 1
29 12 25 2
30 25 26 1
31 27 28 1
32 27 29 1
33 27 30 1
34 15 31 ar
35 31 32 ar
@<TRIPOS>SUBSTRUCTURE
1	RES1	1	GROUP	1 ****	RES
