# created with PyMOL 2.5.2
@<TRIPOS>MOLECULE
WDR5_4W9H_E3ligase
33 35 1                 
SMALL
USER_CHARGES
@<TRIPOS>ATOM
1	  C1	12.394	50.030	80.469	C.3	1	RES1	0.000	
2	  N1	10.955	52.741	87.750	N.pl3	1	RES1	0.000	
3	  O1	12.352	51.768	89.287	O.2	1	RES1	0.000	
4	  S1	15.487	51.806	82.271	S.2	1	RES1	0.000	
5	  C2	13.639	50.626	80.968	C.2	1	RES1	0.000	
6	  N2	12.549	54.125	90.847	N.pl3	1	RES1	0.000	
7	  O2	15.469	55.611	89.409	O.3	1	RES1	0.000	
8	  C3	13.870	51.176	82.227	C.2	1	RES1	0.000	
9	  N3	11.116	54.651	94.085	N.pl3	1	RES1	0.000	
10	  O3	10.389	53.786	91.606	O.2	1	RES1	0.000	
11	  C4	13.008	51.273	83.411	C.2	1	RES1	0.000	
12	  O4	12.491	56.452	94.606	O.2	1	RES1	0.000	
13	  C5	12.890	52.493	84.099	C.2	1	RES1	0.000	
14	  C6	12.121	52.589	85.276	C.2	1	RES1	0.000	
15	  C7	11.411	51.468	85.741	C.2	1	RES1	0.000	
16	  C8	10.612	51.565	87.032	C.3	1	RES1	0.000	
17	  C9	11.890	52.766	88.799	C.2	1	RES1	0.000	
18	 C10	12.132	54.174	89.420	C.3	1	RES1	0.000	
19	 C11	13.260	54.889	88.739	C.3	1	RES1	0.000	
20	 N11	14.710	50.697	80.099	N.2	1	RES1	0.000	
21	 C12	14.491	54.576	89.584	C.3	1	RES1	0.000	
22	 C13	13.923	54.577	91.007	C.3	1	RES1	0.000	
23	 C14	11.587	53.938	91.863	C.2	1	RES1	0.000	
24	 C15	12.095	53.893	93.315	C.3	1	RES1	0.000	
25	 C16	11.412	55.867	94.666	C.2	1	RES1	0.000	
26	 C17	10.203	56.509	95.375	C.3	1	RES1	0.000	
27	 C61	12.311	52.433	93.877	C.3	1	RES1	0.000	
28	 C62	10.929	51.741	94.000	C.3	1	RES1	0.000	
29	 C63	12.948	52.480	95.260	C.3	1	RES1	0.000	
30	 C64	13.209	51.568	92.961	C.3	1	RES1	0.000	
31	 C65	11.509	50.262	85.037	C.2	1	RES1	0.000	
32	 C66	12.287	50.168	83.882	C.2	1	RES1	0.000	
33	 C67	15.722	51.313	80.663	C.2	1	RES1	0.000	
@<TRIPOS>BOND
1 1 5 1
2 2 16 1
3 2 17 1
4 3 17 2
5 4 8 ar
6 4 33 ar
7 5 8 ar
8 8 11 1
9 11 13 ar
10 11 32 ar
11 13 14 ar
12 14 15 ar
13 15 16 1
14 6 18 1
15 17 18 1
16 18 19 1
17 19 21 1
18 5 20 ar
19 20 33 ar
20 7 21 1
21 21 22 1
22 6 22 1
23 6 23 1
24 10 23 2
25 23 24 1
26 9 24 1
27 24 27 1
28 9 25 1
29 12 25 2
30 25 26 1
31 27 28 1
32 27 29 1
33 27 30 1
34 15 31 ar
35 31 32 ar
@<TRIPOS>SUBSTRUCTURE
1	RES1	1	GROUP	1 ****	RES
