# created with PyMOL 2.5.2
@<TRIPOS>MOLECULE
WDR5_4W9H_E3ligase
33 35 1                 
SMALL
USER_CHARGES
@<TRIPOS>ATOM
1	  C1	12.305	49.944	80.515	C.3	1	RES1	0.000	
2	  N1	10.995	52.838	87.759	N.pl3	1	RES1	0.000	
3	  O1	12.455	51.860	89.261	O.2	1	RES1	0.000	
4	  S1	15.504	51.700	82.204	S.2	1	RES1	0.000	
5	  C2	13.588	50.579	80.953	C.2	1	RES1	0.000	
6	  N2	12.480	54.163	90.832	N.pl3	1	RES1	0.000	
7	  O2	15.491	55.629	89.481	O.3	1	RES1	0.000	
8	  C3	13.902	51.149	82.212	C.2	1	RES1	0.000	
9	  N3	11.079	54.613	94.106	N.pl3	1	RES1	0.000	
10	  O3	10.372	53.761	91.584	O.2	1	RES1	0.000	
11	  C4	13.056	51.269	83.423	C.2	1	RES1	0.000	
12	  O4	12.457	56.387	94.633	O.2	1	RES1	0.000	
13	  C5	12.985	52.513	84.129	C.2	1	RES1	0.000	
14	  C6	12.189	52.597	85.288	C.2	1	RES1	0.000	
15	  C7	11.484	51.506	85.787	C.2	1	RES1	0.000	
16	  C8	10.670	51.613	87.038	C.3	1	RES1	0.000	
17	  C9	11.915	52.859	88.828	C.2	1	RES1	0.000	
18	 C10	12.105	54.264	89.425	C.3	1	RES1	0.000	
19	 C11	13.213	55.021	88.771	C.3	1	RES1	0.000	
20	 N11	14.593	50.659	80.031	N.2	1	RES1	0.000	
21	 C12	14.461	54.658	89.561	C.3	1	RES1	0.000	
22	 C13	13.907	54.481	90.988	C.3	1	RES1	0.000	
23	 C14	11.541	53.938	91.849	C.2	1	RES1	0.000	
24	 C15	12.059	53.857	93.302	C.3	1	RES1	0.000	
25	 C16	11.389	55.843	94.710	C.2	1	RES1	0.000	
26	 C17	10.204	56.453	95.414	C.3	1	RES1	0.000	
27	 C55	12.287	52.413	93.832	C.3	1	RES1	0.000	
28	 C56	10.939	51.703	93.974	C.3	1	RES1	0.000	
29	 C57	12.963	52.454	95.214	C.3	1	RES1	0.000	
30	 C58	13.179	51.591	92.898	C.3	1	RES1	0.000	
31	 C59	11.598	50.286	85.102	C.2	1	RES1	0.000	
32	 C60	12.354	50.170	83.941	C.2	1	RES1	0.000	
33	 C61	15.650	51.239	80.589	C.2	1	RES1	0.000	
@<TRIPOS>BOND
1 1 5 1
2 2 16 1
3 2 17 1
4 3 17 2
5 4 8 ar
6 4 33 ar
7 5 8 ar
8 8 11 1
9 11 13 ar
10 11 32 ar
11 13 14 ar
12 14 15 ar
13 15 16 1
14 6 18 1
15 17 18 1
16 18 19 1
17 19 21 1
18 5 20 ar
19 20 33 ar
20 7 21 1
21 21 22 1
22 6 22 1
23 6 23 1
24 10 23 2
25 23 24 1
26 9 24 1
27 24 27 1
28 9 25 1
29 12 25 2
30 25 26 1
31 27 28 1
32 27 29 1
33 27 30 1
34 15 31 ar
35 31 32 ar
@<TRIPOS>SUBSTRUCTURE
1	RES1	1	GROUP	1 ****	RES
