# created with PyMOL 2.5.2
@<TRIPOS>MOLECULE
WDR5_4W9H_E3ligase
33 35 1                 
SMALL
USER_CHARGES
@<TRIPOS>ATOM
1	  C1	12.204	49.772	80.579	C.3	1	RES1	0.000	
2	  N1	11.201	53.146	87.645	N.pl3	1	RES1	0.000	
3	  O1	12.338	51.823	89.175	O.2	1	RES1	0.000	
4	  S1	15.495	51.450	82.106	S.2	1	RES1	0.000	
5	  C2	13.512	50.349	80.961	C.2	1	RES1	0.000	
6	  N2	12.793	54.073	90.874	N.pl3	1	RES1	0.000	
7	  O2	14.092	56.713	90.133	O.3	1	RES1	0.000	
8	  C3	13.844	50.960	82.180	C.2	1	RES1	0.000	
9	  N3	11.055	54.511	94.018	N.pl3	1	RES1	0.000	
10	  O3	10.602	53.651	91.446	O.2	1	RES1	0.000	
11	  C4	13.057	51.223	83.382	C.2	1	RES1	0.000	
12	  O4	12.465	56.236	94.715	O.2	1	RES1	0.000	
13	  C5	13.075	52.487	83.983	C.2	1	RES1	0.000	
14	  C6	12.313	52.755	85.128	C.2	1	RES1	0.000	
15	  C7	11.452	51.799	85.626	C.2	1	RES1	0.000	
16	  C8	10.648	52.036	86.898	C.3	1	RES1	0.000	
17	  C9	12.049	52.929	88.741	C.2	1	RES1	0.000	
18	 C10	12.496	54.217	89.438	C.3	1	RES1	0.000	
19	 C11	13.777	54.706	88.822	C.3	1	RES1	0.000	
20	 N11	14.547	50.331	80.050	N.2	1	RES1	0.000	
21	 C12	14.522	55.354	89.958	C.3	1	RES1	0.000	
22	 C13	14.141	54.515	91.182	C.3	1	RES1	0.000	
23	 C14	11.772	53.830	91.812	C.2	1	RES1	0.000	
24	 C15	12.115	53.733	93.311	C.3	1	RES1	0.000	
25	 C16	11.366	55.724	94.649	C.2	1	RES1	0.000	
26	 C17	10.155	56.355	95.247	C.3	1	RES1	0.000	
27	 C56	12.247	52.301	93.879	C.3	1	RES1	0.000	
28	 C57	10.907	51.591	93.889	C.3	1	RES1	0.000	
29	 C58	12.765	52.351	95.321	C.3	1	RES1	0.000	
30	 C59	13.252	51.412	93.047	C.3	1	RES1	0.000	
31	 C60	11.363	50.533	85.010	C.2	1	RES1	0.000	
32	 C61	12.145	50.263	83.892	C.2	1	RES1	0.000	
33	 C62	15.608	50.881	80.536	C.2	1	RES1	0.000	
@<TRIPOS>BOND
1 1 5 1
2 2 16 1
3 2 17 1
4 3 17 2
5 4 8 ar
6 4 33 ar
7 5 8 ar
8 8 11 1
9 11 13 ar
10 11 32 ar
11 13 14 ar
12 14 15 ar
13 15 16 1
14 6 18 1
15 17 18 1
16 18 19 1
17 19 21 1
18 5 20 ar
19 20 33 ar
20 7 21 1
21 21 22 1
22 6 22 1
23 6 23 1
24 10 23 2
25 23 24 1
26 9 24 1
27 24 27 1
28 9 25 1
29 12 25 2
30 25 26 1
31 27 28 1
32 27 29 1
33 27 30 1
34 15 31 ar
35 31 32 ar
@<TRIPOS>SUBSTRUCTURE
1	RES1	1	GROUP	1 ****	RES
