# created with PyMOL 2.5.2
@<TRIPOS>MOLECULE
WDR5_4W9H_E3ligase
33 35 1                 
SMALL
USER_CHARGES
@<TRIPOS>ATOM
1	  C1	12.372	49.936	80.552	C.3	1	RES1	0.000	
2	  N1	11.067	52.786	87.760	N.pl3	1	RES1	0.000	
3	  O1	12.620	51.893	89.211	O.2	1	RES1	0.000	
4	  S1	15.545	51.761	82.159	S.2	1	RES1	0.000	
5	  C2	13.621	50.622	80.965	C.2	1	RES1	0.000	
6	  N2	12.496	54.113	90.852	N.pl3	1	RES1	0.000	
7	  O2	15.485	55.664	89.626	O.3	1	RES1	0.000	
8	  C3	13.931	51.181	82.201	C.2	1	RES1	0.000	
9	  N3	10.936	54.605	94.054	N.pl3	1	RES1	0.000	
10	  O3	10.333	53.723	91.522	O.2	1	RES1	0.000	
11	  C4	13.124	51.274	83.406	C.2	1	RES1	0.000	
12	  O4	12.285	56.390	94.674	O.2	1	RES1	0.000	
13	  C5	12.999	52.470	84.105	C.2	1	RES1	0.000	
14	  C6	12.218	52.586	85.262	C.2	1	RES1	0.000	
15	  C7	11.574	51.467	85.776	C.2	1	RES1	0.000	
16	  C8	10.786	51.570	87.074	C.3	1	RES1	0.000	
17	  C9	11.979	52.873	88.805	C.2	1	RES1	0.000	
18	 C10	12.133	54.257	89.405	C.3	1	RES1	0.000	
19	 C11	13.284	55.054	88.818	C.3	1	RES1	0.000	
20	 N11	14.636	50.698	80.022	N.2	1	RES1	0.000	
21	 C12	14.481	54.637	89.651	C.3	1	RES1	0.000	
22	 C13	13.884	54.468	91.063	C.3	1	RES1	0.000	
23	 C14	11.500	53.915	91.831	C.2	1	RES1	0.000	
24	 C15	11.961	53.896	93.268	C.3	1	RES1	0.000	
25	 C16	11.188	55.812	94.663	C.2	1	RES1	0.000	
26	 C17	9.978	56.381	95.321	C.3	1	RES1	0.000	
27	 C57	12.222	52.441	93.850	C.3	1	RES1	0.000	
28	 C58	12.569	52.550	95.342	C.3	1	RES1	0.000	
29	 C59	13.397	51.778	93.114	C.3	1	RES1	0.000	
30	 C60	10.968	51.513	93.705	C.3	1	RES1	0.000	
31	 C61	11.671	50.254	85.114	C.2	1	RES1	0.000	
32	 C62	12.447	50.156	83.933	C.2	1	RES1	0.000	
33	 C63	15.684	51.292	80.532	C.2	1	RES1	0.000	
@<TRIPOS>BOND
1 1 5 1
2 2 16 1
3 2 17 1
4 3 17 2
5 4 8 ar
6 4 33 ar
7 5 8 ar
8 8 11 1
9 11 13 ar
10 11 32 ar
11 13 14 ar
12 14 15 ar
13 15 16 1
14 6 18 1
15 17 18 1
16 18 19 1
17 19 21 1
18 5 20 ar
19 20 33 ar
20 7 21 1
21 21 22 1
22 6 22 1
23 6 23 1
24 10 23 2
25 23 24 1
26 9 24 1
27 24 27 1
28 9 25 1
29 12 25 2
30 25 26 1
31 27 28 1
32 27 29 1
33 27 30 1
34 15 31 ar
35 31 32 ar
@<TRIPOS>SUBSTRUCTURE
1	RES1	1	GROUP	1 ****	RES
