# created with PyMOL 2.5.2
@<TRIPOS>MOLECULE
WDR5_4W9H_E3ligase
33 35 1                 
SMALL
USER_CHARGES
@<TRIPOS>ATOM
1	  C1	12.346	49.817	80.520	C.3	1	RES1	0.000	
2	  N1	11.045	52.900	87.789	N.pl3	1	RES1	0.000	
3	  O1	12.536	51.953	89.229	O.2	1	RES1	0.000	
4	  S1	15.463	51.734	82.206	S.2	1	RES1	0.000	
5	  C2	13.599	50.531	80.964	C.2	1	RES1	0.000	
6	  N2	12.490	54.188	90.840	N.pl3	1	RES1	0.000	
7	  O2	15.458	55.744	89.551	O.3	1	RES1	0.000	
8	  C3	13.851	51.107	82.185	C.2	1	RES1	0.000	
9	  N3	11.090	54.576	94.115	N.pl3	1	RES1	0.000	
10	  O3	10.386	53.758	91.585	O.2	1	RES1	0.000	
11	  C4	13.006	51.277	83.404	C.2	1	RES1	0.000	
12	  O4	12.474	56.377	94.644	O.2	1	RES1	0.000	
13	  C5	12.263	50.201	83.950	C.2	1	RES1	0.000	
14	  C6	11.537	50.308	85.087	C.2	1	RES1	0.000	
15	  C7	11.479	51.525	85.795	C.2	1	RES1	0.000	
16	  C8	10.707	51.665	87.057	C.3	1	RES1	0.000	
17	  C9	11.942	52.918	88.821	C.2	1	RES1	0.000	
18	 C10	12.098	54.302	89.440	C.3	1	RES1	0.000	
19	 C11	13.252	55.131	88.795	C.3	1	RES1	0.000	
20	 N11	14.630	50.575	80.060	N.2	1	RES1	0.000	
21	 C12	14.467	54.725	89.614	C.3	1	RES1	0.000	
22	 C13	13.900	54.561	91.024	C.3	1	RES1	0.000	
23	 C14	11.570	53.925	91.823	C.2	1	RES1	0.000	
24	 C15	12.081	53.854	93.298	C.3	1	RES1	0.000	
25	 C16	11.387	55.792	94.713	C.2	1	RES1	0.000	
26	 C17	10.205	56.401	95.414	C.3	1	RES1	0.000	
27	 C58	12.281	52.362	93.800	C.3	1	RES1	0.000	
28	 C59	10.894	51.682	93.881	C.3	1	RES1	0.000	
29	 C60	12.895	52.372	95.192	C.3	1	RES1	0.000	
30	 C61	13.175	51.508	92.857	C.3	1	RES1	0.000	
31	 C62	12.230	52.598	85.303	C.2	1	RES1	0.000	
32	 C63	12.999	52.463	84.125	C.2	1	RES1	0.000	
33	 C64	15.637	51.196	80.585	C.2	1	RES1	0.000	
@<TRIPOS>BOND
1 1 5 1
2 2 16 1
3 2 17 1
4 3 17 2
5 4 8 ar
6 4 33 ar
7 5 8 ar
8 8 11 1
9 11 13 ar
10 11 32 ar
11 13 14 ar
12 14 15 ar
13 15 16 1
14 6 18 1
15 17 18 1
16 18 19 1
17 19 21 1
18 5 20 ar
19 20 33 ar
20 7 21 1
21 21 22 1
22 6 22 1
23 6 23 1
24 10 23 2
25 23 24 1
26 9 24 1
27 24 27 1
28 9 25 1
29 12 25 2
30 25 26 1
31 27 28 1
32 27 29 1
33 27 30 1
34 15 31 ar
35 31 32 ar
@<TRIPOS>SUBSTRUCTURE
1	RES1	1	GROUP	1 ****	RES
