# created with PyMOL 2.5.2
@<TRIPOS>MOLECULE
WDR5_4W9H_E3ligase
33 35 1                 
SMALL
USER_CHARGES
@<TRIPOS>ATOM
1	  C1	12.364	49.982	80.511	C.3	1	RES1	0.000	
2	  N1	10.954	52.810	87.740	N.pl3	1	RES1	0.000	
3	  O1	12.393	51.782	89.200	O.2	1	RES1	0.000	
4	  S1	15.511	51.752	82.252	S.2	1	RES1	0.000	
5	  C2	13.619	50.633	80.969	C.2	1	RES1	0.000	
6	  N2	12.484	54.123	90.852	N.pl3	1	RES1	0.000	
7	  O2	15.476	55.507	89.426	O.3	1	RES1	0.000	
8	  C3	13.876	51.199	82.228	C.2	1	RES1	0.000	
9	  N3	11.086	54.653	94.111	N.pl3	1	RES1	0.000	
10	  O3	10.377	53.790	91.631	O.2	1	RES1	0.000	
11	  C4	13.056	51.323	83.398	C.2	1	RES1	0.000	
12	  O4	12.462	56.419	94.643	O.2	1	RES1	0.000	
13	  C5	12.315	50.208	83.881	C.2	1	RES1	0.000	
14	  C6	11.537	50.284	85.041	C.2	1	RES1	0.000	
15	  C7	11.443	51.474	85.760	C.2	1	RES1	0.000	
16	  C8	10.601	51.583	87.023	C.3	1	RES1	0.000	
17	  C9	11.849	52.800	88.779	C.2	1	RES1	0.000	
18	 C10	12.088	54.159	89.429	C.3	1	RES1	0.000	
19	 C11	13.242	54.886	88.717	C.3	1	RES1	0.000	
20	 N11	14.662	50.691	80.075	N.2	1	RES1	0.000	
21	 C12	14.457	54.539	89.575	C.3	1	RES1	0.000	
22	 C13	13.885	54.517	90.987	C.3	1	RES1	0.000	
23	 C14	11.560	53.919	91.869	C.2	1	RES1	0.000	
24	 C15	12.078	53.891	93.319	C.3	1	RES1	0.000	
25	 C16	11.385	55.871	94.668	C.2	1	RES1	0.000	
26	 C17	10.205	56.494	95.357	C.3	1	RES1	0.000	
27	 C59	12.329	52.482	93.890	C.3	1	RES1	0.000	
28	 C60	11.013	51.717	94.002	C.3	1	RES1	0.000	
29	 C61	12.964	52.540	95.255	C.3	1	RES1	0.000	
30	 C62	13.256	51.622	92.966	C.3	1	RES1	0.000	
31	 C63	12.172	52.587	85.310	C.2	1	RES1	0.000	
32	 C64	12.970	52.506	84.153	C.2	1	RES1	0.000	
33	 C65	15.701	51.269	80.618	C.2	1	RES1	0.000	
@<TRIPOS>BOND
1 1 5 1
2 2 16 1
3 2 17 1
4 3 17 2
5 4 8 ar
6 4 33 ar
7 5 8 ar
8 8 11 1
9 11 13 ar
10 11 32 ar
11 13 14 ar
12 14 15 ar
13 15 16 1
14 6 18 1
15 17 18 1
16 18 19 1
17 19 21 1
18 5 20 ar
19 20 33 ar
20 7 21 1
21 21 22 1
22 6 22 1
23 6 23 1
24 10 23 2
25 23 24 1
26 9 24 1
27 24 27 1
28 9 25 1
29 12 25 2
30 25 26 1
31 27 28 1
32 27 29 1
33 27 30 1
34 15 31 ar
35 31 32 ar
@<TRIPOS>SUBSTRUCTURE
1	RES1	1	GROUP	1 ****	RES
