# created with PyMOL 2.5.2
@<TRIPOS>MOLECULE
WDR5_4W9H_E3ligase
33 35 1                 
SMALL
USER_CHARGES
@<TRIPOS>ATOM
1	  C1	12.451	49.946	80.421	C.3	1	RES1	0.000	
2	  N1	11.003	52.800	87.668	N.pl3	1	RES1	0.000	
3	  O1	12.507	51.867	89.135	O.2	1	RES1	0.000	
4	  S1	15.551	51.780	82.175	S.2	1	RES1	0.000	
5	  C2	13.689	50.622	80.886	C.2	1	RES1	0.000	
6	  N2	12.380	54.127	90.861	N.pl3	1	RES1	0.000	
7	  O2	15.479	55.436	89.657	O.3	1	RES1	0.000	
8	  C3	13.943	51.174	82.122	C.2	1	RES1	0.000	
9	  N3	11.002	54.654	94.165	N.pl3	1	RES1	0.000	
10	  O3	10.284	53.785	91.713	O.2	1	RES1	0.000	
11	  C4	13.094	51.300	83.325	C.2	1	RES1	0.000	
12	  O4	12.275	56.517	94.673	O.2	1	RES1	0.000	
13	  C5	12.973	52.518	84.029	C.2	1	RES1	0.000	
14	  C6	12.215	52.587	85.178	C.2	1	RES1	0.000	
15	  C7	11.541	51.469	85.674	C.2	1	RES1	0.000	
16	  C8	10.720	51.557	86.944	C.3	1	RES1	0.000	
17	  C9	11.888	52.832	88.723	C.2	1	RES1	0.000	
18	 C10	12.049	54.205	89.418	C.3	1	RES1	0.000	
19	 N10	14.736	50.709	79.981	N.2	1	RES1	0.000	
20	 C11	13.239	54.943	88.829	C.3	1	RES1	0.000	
21	 C12	14.421	54.497	89.715	C.3	1	RES1	0.000	
22	 C13	13.788	54.387	91.081	C.3	1	RES1	0.000	
23	 C14	11.481	53.938	91.933	C.2	1	RES1	0.000	
24	 C15	12.027	53.912	93.363	C.3	1	RES1	0.000	
25	 C16	11.230	55.892	94.737	C.2	1	RES1	0.000	
26	 C17	10.029	56.405	95.478	C.3	1	RES1	0.000	
27	 C49	12.279	52.489	93.948	C.3	1	RES1	0.000	
28	 C50	12.761	52.502	95.380	C.3	1	RES1	0.000	
29	 C51	13.320	51.764	93.046	C.3	1	RES1	0.000	
30	 C52	10.952	51.686	93.888	C.3	1	RES1	0.000	
31	 C53	11.662	50.246	84.994	C.2	1	RES1	0.000	
32	 C54	12.429	50.166	83.828	C.2	1	RES1	0.000	
33	 C55	15.768	51.282	80.546	C.2	1	RES1	0.000	
@<TRIPOS>BOND
1 1 5 1
2 2 16 1
3 2 17 1
4 3 17 2
5 4 8 ar
6 4 33 ar
7 5 8 ar
8 8 11 1
9 11 13 ar
10 11 32 ar
11 13 14 ar
12 14 15 ar
13 15 16 1
14 6 18 1
15 17 18 1
16 18 20 1
17 5 19 ar
18 19 33 ar
19 20 21 1
20 7 21 1
21 21 22 1
22 6 22 1
23 6 23 1
24 10 23 2
25 23 24 1
26 9 24 1
27 24 27 1
28 9 25 1
29 12 25 2
30 25 26 1
31 27 28 1
32 27 29 1
33 27 30 1
34 15 31 ar
35 31 32 ar
@<TRIPOS>SUBSTRUCTURE
1	RES1	1	GROUP	1 ****	RES
