# created with PyMOL 2.5.2
@<TRIPOS>MOLECULE
WDR5_4W9H_E3ligase
33 35 1                 
SMALL
USER_CHARGES
@<TRIPOS>ATOM
1	  C1	12.355	49.953	80.530	C.3	1	RES1	0.000	
2	  N1	10.980	52.801	87.764	N.pl3	1	RES1	0.000	
3	  O1	12.422	51.805	89.232	O.2	1	RES1	0.000	
4	  S1	15.505	51.773	82.212	S.2	1	RES1	0.000	
5	  C2	13.604	50.604	80.937	C.2	1	RES1	0.000	
6	  N2	12.500	54.119	90.848	N.pl3	1	RES1	0.000	
7	  O2	15.439	55.582	89.412	O.3	1	RES1	0.000	
8	  C3	13.882	51.169	82.187	C.2	1	RES1	0.000	
9	  N3	11.120	54.645	94.108	N.pl3	1	RES1	0.000	
10	  O3	10.377	53.828	91.608	O.2	1	RES1	0.000	
11	  C4	13.047	51.294	83.396	C.2	1	RES1	0.000	
12	  O4	12.501	56.427	94.599	O.2	1	RES1	0.000	
13	  C5	12.318	50.208	83.904	C.2	1	RES1	0.000	
14	  C6	11.546	50.292	85.049	C.2	1	RES1	0.000	
15	  C7	11.466	51.481	85.760	C.2	1	RES1	0.000	
16	  C8	10.642	51.574	87.018	C.3	1	RES1	0.000	
17	  C9	11.870	52.801	88.798	C.2	1	RES1	0.000	
18	  N9	14.647	50.681	80.063	N.2	1	RES1	0.000	
19	 C10	12.090	54.184	89.457	C.3	1	RES1	0.000	
20	 C11	13.215	54.927	88.733	C.3	1	RES1	0.000	
21	 C12	14.414	54.611	89.592	C.3	1	RES1	0.000	
22	 C13	13.899	54.575	90.983	C.3	1	RES1	0.000	
23	 C14	11.563	53.936	91.891	C.2	1	RES1	0.000	
24	 C15	12.092	53.883	93.337	C.3	1	RES1	0.000	
25	 C16	11.405	55.866	94.683	C.2	1	RES1	0.000	
26	 C17	10.259	56.477	95.392	C.3	1	RES1	0.000	
27	 C43	12.299	52.426	93.869	C.3	1	RES1	0.000	
28	 C44	10.919	51.737	93.992	C.3	1	RES1	0.000	
29	 C45	12.941	52.452	95.272	C.3	1	RES1	0.000	
30	 C46	13.163	51.553	92.951	C.3	1	RES1	0.000	
31	 C47	12.224	52.587	85.305	C.2	1	RES1	0.000	
32	 C48	12.985	52.482	84.154	C.2	1	RES1	0.000	
33	 C49	15.681	51.273	80.598	C.2	1	RES1	0.000	
@<TRIPOS>BOND
1 1 5 1
2 2 16 1
3 2 17 1
4 3 17 2
5 4 8 ar
6 4 33 ar
7 5 8 ar
8 5 18 ar
9 8 11 1
10 11 13 ar
11 11 32 ar
12 13 14 ar
13 14 15 ar
14 15 16 1
15 6 19 1
16 17 19 1
17 19 20 1
18 20 21 1
19 7 21 1
20 21 22 1
21 6 22 1
22 6 23 1
23 10 23 2
24 23 24 1
25 9 24 1
26 24 27 1
27 9 25 1
28 12 25 2
29 25 26 1
30 27 28 1
31 27 29 1
32 27 30 1
33 15 31 ar
34 31 32 ar
35 18 33 ar
@<TRIPOS>SUBSTRUCTURE
1	RES1	1	GROUP	1 ****	RES
