# created with PyMOL 2.5.2
@<TRIPOS>MOLECULE
BRD4_6H0G_E3ligase
20 22 1                 
SMALL
USER_CHARGES
@<TRIPOS>ATOM
1	  N3	1.969	54.438	-85.591	N.pl3	1	RES1	0.000	
2	  N4	1.709	51.800	-82.112	N.2	1	RES1	0.000	
3	  O4	2.782	53.789	-82.836	O.2	1	RES1	0.000	
4	  N5	1.995	50.068	-78.856	N.pl3	1	RES1	0.000	
5	  O5	3.697	49.666	-77.446	O.2	1	RES1	0.000	
6	  O6	0.202	50.454	-80.192	O.2	1	RES1	0.000	
7	  O7	0.435	49.827	-82.233	O.2	1	RES1	0.000	
8	 C21	1.327	53.197	-85.432	C.2	1	RES1	0.000	
9	 C22	0.555	52.677	-86.472	C.2	1	RES1	0.000	
10	 C23	-0.167	51.457	-86.283	C.2	1	RES1	0.000	
11	 C24	-0.103	50.770	-85.085	C.2	1	RES1	0.000	
12	 C25	0.684	51.317	-84.066	C.2	1	RES1	0.000	
13	 C26	1.353	52.500	-84.243	C.2	1	RES1	0.000	
14	 C27	2.032	52.807	-82.996	C.2	1	RES1	0.000	
15	 C28	2.216	51.650	-80.732	C.3	1	RES1	0.000	
16	 C29	3.710	51.258	-80.678	C.3	1	RES1	0.000	
17	 C30	4.159	51.183	-79.234	C.3	1	RES1	0.000	
18	 C31	3.288	50.213	-78.422	C.2	1	RES1	0.000	
19	 C32	1.388	50.662	-79.949	C.2	1	RES1	0.000	
20	 C33	0.893	50.859	-82.709	C.2	1	RES1	0.000	
@<TRIPOS>BOND
1 1 8 1
2 8 9 ar
3 8 13 ar
4 9 10 ar
5 10 11 ar
6 11 12 ar
7 12 13 ar
8 12 20 ar
9 13 14 ar
10 2 14 ar
11 3 14 2
12 2 15 1
13 15 16 1
14 15 19 1
15 16 17 1
16 17 18 1
17 4 18 1
18 5 18 2
19 4 19 1
20 6 19 2
21 2 20 ar
22 7 20 2
@<TRIPOS>SUBSTRUCTURE
1	RES1	1	GROUP	1 ****	RES
