# created with PyMOL 2.5.2
@<TRIPOS>MOLECULE
WDR5_4W9H_E3ligase
34 36 1                 
SMALL
USER_CHARGES
@<TRIPOS>ATOM
1	  C1	12.383	50.010	80.511	C.3	1	RES1	0.000	
2	  N1	10.961	52.760	87.786	N.pl3	1	RES1	0.000	
3	  O1	12.433	51.799	89.246	O.2	1	RES1	0.000	
4	  S1	15.476	51.883	82.250	S.2	1	RES1	0.000	
5	  C2	13.639	50.658	80.978	C.2	1	RES1	0.000	
6	  N2	12.465	54.128	90.833	N.pl3	1	RES1	0.000	
7	  O2	15.503	55.424	89.392	O.3	1	RES1	0.000	
8	  C3	13.882	51.205	82.221	C.2	1	RES1	0.000	
9	  N3	11.100	54.685	94.093	N.pl3	1	RES1	0.000	
10	  O3	10.356	53.824	91.597	O.2	1	RES1	0.000	
11	  C4	13.036	51.287	83.426	C.2	1	RES1	0.000	
12	  O4	12.525	56.452	94.588	O.2	1	RES1	0.000	
13	  C5	12.334	50.149	83.917	C.2	1	RES1	0.000	
14	  C6	11.576	50.231	85.062	C.2	1	RES1	0.000	
15	  C7	11.464	51.426	85.803	C.2	1	RES1	0.000	
16	  C8	10.623	51.536	87.074	C.3	1	RES1	0.000	
17	  C9	9.114	51.461	86.781	C.3	1	RES1	0.000	
18	  N9	14.668	50.741	80.094	N.2	1	RES1	0.000	
19	 C10	11.848	52.788	88.814	C.2	1	RES1	0.000	
20	 C11	12.064	54.183	89.426	C.3	1	RES1	0.000	
21	 C12	13.213	54.901	88.720	C.3	1	RES1	0.000	
22	 C13	14.421	54.492	89.557	C.3	1	RES1	0.000	
23	 C14	13.897	54.395	90.961	C.3	1	RES1	0.000	
24	 C15	11.533	53.959	91.859	C.2	1	RES1	0.000	
25	 C16	12.064	53.912	93.293	C.3	1	RES1	0.000	
26	 C17	11.428	55.895	94.664	C.2	1	RES1	0.000	
27	 C18	10.267	56.547	95.376	C.3	1	RES1	0.000	
28	 C44	12.293	52.467	93.856	C.3	1	RES1	0.000	
29	 C45	10.954	51.774	93.991	C.3	1	RES1	0.000	
30	 C46	12.970	52.510	95.230	C.3	1	RES1	0.000	
31	 C47	13.194	51.584	92.911	C.3	1	RES1	0.000	
32	 C48	12.153	52.551	85.329	C.2	1	RES1	0.000	
33	 C49	12.939	52.481	84.161	C.2	1	RES1	0.000	
34	 C50	15.706	51.370	80.617	C.2	1	RES1	0.000	
@<TRIPOS>BOND
1 1 5 1
2 2 16 1
3 2 19 1
4 3 19 2
5 4 8 ar
6 4 34 ar
7 5 8 ar
8 5 18 ar
9 8 11 1
10 11 13 ar
11 11 33 ar
12 13 14 ar
13 14 15 ar
14 15 16 1
15 16 17 1
16 19 20 1
17 6 20 1
18 20 21 1
19 21 22 1
20 7 22 1
21 22 23 1
22 6 23 1
23 6 24 1
24 10 24 2
25 24 25 1
26 9 25 1
27 25 28 1
28 9 26 1
29 12 26 2
30 26 27 1
31 28 29 1
32 28 30 1
33 28 31 1
34 15 32 ar
35 32 33 ar
36 18 34 ar
@<TRIPOS>SUBSTRUCTURE
1	RES1	1	GROUP	1 ****	RES
