# created with PyMOL 2.5.2
@<TRIPOS>MOLECULE
WDR5_4W9H_E3ligase
33 35 1                 
SMALL
USER_CHARGES
@<TRIPOS>ATOM
1	  C1	12.152	49.985	80.510	C.3	1	RES1	0.000	
2	  N1	11.173	53.052	87.692	N.pl3	1	RES1	0.000	
3	  O1	12.326	51.791	89.261	O.2	1	RES1	0.000	
4	  S1	15.511	51.410	82.162	S.2	1	RES1	0.000	
5	  C2	13.501	50.451	80.954	C.2	1	RES1	0.000	
6	  N2	12.815	54.076	90.905	N.pl3	1	RES1	0.000	
7	  O2	14.052	56.697	89.993	O.3	1	RES1	0.000	
8	  C3	13.839	51.004	82.170	C.2	1	RES1	0.000	
9	  N3	11.106	54.513	94.017	N.pl3	1	RES1	0.000	
10	  O3	10.609	53.689	91.452	O.2	1	RES1	0.000	
11	  C4	13.040	51.256	83.385	C.2	1	RES1	0.000	
12	  O4	12.442	56.286	94.686	O.2	1	RES1	0.000	
13	  C5	12.162	50.273	83.856	C.2	1	RES1	0.000	
14	  C6	11.382	50.524	84.978	C.2	1	RES1	0.000	
15	  C7	11.462	51.737	85.654	C.2	1	RES1	0.000	
16	  C8	10.659	51.960	86.915	C.3	1	RES1	0.000	
17	  C9	12.040	52.880	88.802	C.2	1	RES1	0.000	
18	  N9	14.521	50.338	80.050	N.2	1	RES1	0.000	
19	 C10	12.489	54.171	89.464	C.3	1	RES1	0.000	
20	 C11	13.807	54.611	88.840	C.3	1	RES1	0.000	
21	 C12	14.505	55.324	89.910	C.3	1	RES1	0.000	
22	 C13	14.118	54.565	91.180	C.3	1	RES1	0.000	
23	 C14	11.762	53.824	91.811	C.2	1	RES1	0.000	
24	 C15	12.141	53.758	93.322	C.3	1	RES1	0.000	
25	 C16	11.337	55.738	94.644	C.2	1	RES1	0.000	
26	 C17	10.115	56.380	95.234	C.3	1	RES1	0.000	
27	 C43	12.286	52.315	93.855	C.3	1	RES1	0.000	
28	 C44	10.902	51.627	93.828	C.3	1	RES1	0.000	
29	 C45	12.773	52.329	95.297	C.3	1	RES1	0.000	
30	 C46	13.241	51.446	93.030	C.3	1	RES1	0.000	
31	 C47	12.343	52.724	85.182	C.2	1	RES1	0.000	
32	 C48	13.127	52.474	84.061	C.2	1	RES1	0.000	
33	 C49	15.633	50.816	80.556	C.2	1	RES1	0.000	
@<TRIPOS>BOND
1 1 5 1
2 2 16 1
3 2 17 1
4 3 17 2
5 4 8 ar
6 4 33 ar
7 5 8 ar
8 5 18 ar
9 8 11 1
10 11 13 ar
11 11 32 ar
12 13 14 ar
13 14 15 ar
14 15 16 1
15 6 19 1
16 17 19 1
17 19 20 1
18 20 21 1
19 7 21 1
20 21 22 1
21 6 22 1
22 6 23 1
23 10 23 2
24 23 24 1
25 9 24 1
26 24 27 1
27 9 25 1
28 12 25 2
29 25 26 1
30 27 28 1
31 27 29 1
32 27 30 1
33 15 31 ar
34 31 32 ar
35 18 33 ar
@<TRIPOS>SUBSTRUCTURE
1	RES1	1	GROUP	1 ****	RES
