# created with PyMOL 2.5.2
@<TRIPOS>MOLECULE
WDR5_4W9H_E3ligase
33 35 1                 
SMALL
USER_CHARGES
@<TRIPOS>ATOM
1	  C1	12.284	49.934	80.526	C.3	1	RES1	0.000	
2	  N1	11.043	52.846	87.767	N.pl3	1	RES1	0.000	
3	  O1	12.452	51.891	89.288	O.2	1	RES1	0.000	
4	  S1	15.491	51.710	82.133	S.2	1	RES1	0.000	
5	  C2	13.570	50.550	80.946	C.2	1	RES1	0.000	
6	  N2	12.480	54.170	90.838	N.pl3	1	RES1	0.000	
7	  O2	15.428	55.712	89.531	O.3	1	RES1	0.000	
8	  C3	13.870	51.120	82.173	C.2	1	RES1	0.000	
9	  N3	11.092	54.618	94.119	N.pl3	1	RES1	0.000	
10	  O3	10.363	53.764	91.583	O.2	1	RES1	0.000	
11	  C4	13.072	51.252	83.406	C.2	1	RES1	0.000	
12	  O4	12.486	56.379	94.668	O.2	1	RES1	0.000	
13	  C5	12.363	50.156	83.941	C.2	1	RES1	0.000	
14	  C6	11.614	50.290	85.093	C.2	1	RES1	0.000	
15	  C7	11.540	51.512	85.795	C.2	1	RES1	0.000	
16	  C8	10.735	51.658	87.040	C.3	1	RES1	0.000	
17	  C9	11.914	52.888	88.827	C.2	1	RES1	0.000	
18	  N9	14.563	50.587	80.009	N.2	1	RES1	0.000	
19	 C10	12.091	54.298	89.444	C.3	1	RES1	0.000	
20	 C11	13.213	55.087	88.809	C.3	1	RES1	0.000	
21	 C12	14.425	54.707	89.615	C.3	1	RES1	0.000	
22	 C13	13.883	54.529	91.030	C.3	1	RES1	0.000	
23	 C14	11.533	53.951	91.875	C.2	1	RES1	0.000	
24	 C15	12.047	53.860	93.303	C.3	1	RES1	0.000	
25	 C16	11.396	55.828	94.730	C.2	1	RES1	0.000	
26	 C17	10.230	56.412	95.442	C.3	1	RES1	0.000	
27	 C45	12.270	52.403	93.809	C.3	1	RES1	0.000	
28	 C46	10.899	51.666	93.924	C.3	1	RES1	0.000	
29	 C47	12.940	52.410	95.187	C.3	1	RES1	0.000	
30	 C48	13.170	51.575	92.845	C.3	1	RES1	0.000	
31	 C49	12.252	52.609	85.290	C.2	1	RES1	0.000	
32	 C50	13.026	52.475	84.114	C.2	1	RES1	0.000	
33	 C51	15.633	51.165	80.532	C.2	1	RES1	0.000	
@<TRIPOS>BOND
1 1 5 1
2 2 16 1
3 2 17 1
4 3 17 2
5 4 8 ar
6 4 33 ar
7 5 8 ar
8 5 18 ar
9 8 11 1
10 11 13 ar
11 11 32 ar
12 13 14 ar
13 14 15 ar
14 15 16 1
15 6 19 1
16 17 19 1
17 19 20 1
18 20 21 1
19 7 21 1
20 21 22 1
21 6 22 1
22 6 23 1
23 10 23 2
24 23 24 1
25 9 24 1
26 24 27 1
27 9 25 1
28 12 25 2
29 25 26 1
30 27 28 1
31 27 29 1
32 27 30 1
33 15 31 ar
34 31 32 ar
35 18 33 ar
@<TRIPOS>SUBSTRUCTURE
1	RES1	1	GROUP	1 ****	RES
