# created with PyMOL 2.5.2
@<TRIPOS>MOLECULE
WDR5_4W9H_E3ligase
33 35 1                 
SMALL
USER_CHARGES
@<TRIPOS>ATOM
1	  C1	12.247	49.881	80.447	C.3	1	RES1	0.000	
2	  N1	11.266	53.095	87.573	N.pl3	1	RES1	0.000	
3	  O1	12.339	51.797	89.140	O.2	1	RES1	0.000	
4	  S1	15.586	51.438	82.006	S.2	1	RES1	0.000	
5	  C2	13.560	50.393	80.873	C.2	1	RES1	0.000	
6	  N2	12.603	54.063	90.898	N.pl3	1	RES1	0.000	
7	  O2	14.141	56.584	90.357	O.3	1	RES1	0.000	
8	  C3	13.944	50.992	82.070	C.2	1	RES1	0.000	
9	  N3	10.984	54.549	94.096	N.pl3	1	RES1	0.000	
10	  O3	10.451	53.696	91.577	O.2	1	RES1	0.000	
11	  C4	13.157	51.245	83.269	C.2	1	RES1	0.000	
12	  O4	12.168	56.412	94.686	O.2	1	RES1	0.000	
13	  C5	13.198	52.481	83.953	C.2	1	RES1	0.000	
14	  C6	12.437	52.707	85.071	C.2	1	RES1	0.000	
15	  C7	11.551	51.722	85.575	C.2	1	RES1	0.000	
16	  C8	10.746	52.004	86.815	C.3	1	RES1	0.000	
17	  C9	12.043	52.898	88.706	C.2	1	RES1	0.000	
18	  N9	14.590	50.270	79.932	N.2	1	RES1	0.000	
19	 C10	12.424	54.183	89.459	C.3	1	RES1	0.000	
20	 C11	13.751	54.682	88.936	C.3	1	RES1	0.000	
21	 C12	14.475	55.189	90.149	C.3	1	RES1	0.000	
22	 C13	13.977	54.308	91.278	C.3	1	RES1	0.000	
23	 C14	11.626	53.852	91.883	C.2	1	RES1	0.000	
24	 C15	12.036	53.853	93.368	C.3	1	RES1	0.000	
25	 C16	11.144	55.755	94.702	C.2	1	RES1	0.000	
26	 C17	9.904	56.221	95.373	C.3	1	RES1	0.000	
27	 C45	12.321	52.416	93.913	C.3	1	RES1	0.000	
28	 C46	12.707	52.396	95.406	C.3	1	RES1	0.000	
29	 C47	13.506	51.790	93.131	C.3	1	RES1	0.000	
30	 C48	11.123	51.477	93.729	C.3	1	RES1	0.000	
31	 C49	11.465	50.525	84.897	C.2	1	RES1	0.000	
32	 C50	12.238	50.292	83.769	C.2	1	RES1	0.000	
33	 C51	15.694	50.793	80.443	C.2	1	RES1	0.000	
@<TRIPOS>BOND
1 1 5 1
2 2 16 1
3 2 17 1
4 3 17 2
5 4 8 ar
6 4 33 ar
7 5 8 ar
8 5 18 ar
9 8 11 1
10 11 13 ar
11 11 32 ar
12 13 14 ar
13 14 15 ar
14 15 16 1
15 6 19 1
16 17 19 1
17 19 20 1
18 20 21 1
19 7 21 1
20 21 22 1
21 6 22 1
22 6 23 1
23 10 23 2
24 23 24 1
25 9 24 1
26 24 27 1
27 9 25 1
28 12 25 2
29 25 26 1
30 27 28 1
31 27 29 1
32 27 30 1
33 15 31 ar
34 31 32 ar
35 18 33 ar
@<TRIPOS>SUBSTRUCTURE
1	RES1	1	GROUP	1 ****	RES
