# created with PyMOL 2.5.2
@<TRIPOS>MOLECULE
WDR5_4W9H_E3ligase
34 36 1                 
SMALL
USER_CHARGES
@<TRIPOS>ATOM
1	  C1	12.248	49.876	80.501	C.3	1	RES1	0.000	
2	  N1	11.211	52.956	87.739	N.pl3	1	RES1	0.000	
3	  O1	12.425	51.783	89.310	O.2	1	RES1	0.000	
4	  S1	15.558	51.517	82.069	S.2	1	RES1	0.000	
5	  C2	13.555	50.479	80.893	C.2	1	RES1	0.000	
6	  N2	12.723	54.049	90.851	N.pl3	1	RES1	0.000	
7	  O2	14.232	56.591	90.298	O.3	1	RES1	0.000	
8	  C3	13.904	51.035	82.130	C.2	1	RES1	0.000	
9	  N3	10.940	54.559	93.987	N.pl3	1	RES1	0.000	
10	  O3	10.512	53.721	91.412	O.2	1	RES1	0.000	
11	  C4	13.113	51.232	83.340	C.2	1	RES1	0.000	
12	  O4	12.258	56.338	94.705	O.2	1	RES1	0.000	
13	  C5	13.164	52.453	84.019	C.2	1	RES1	0.000	
14	  C6	12.409	52.662	85.176	C.2	1	RES1	0.000	
15	  C7	11.548	51.643	85.688	C.2	1	RES1	0.000	
16	  C8	10.710	51.828	86.951	C.3	1	RES1	0.000	
17	  C9	9.201	51.864	86.712	C.3	1	RES1	0.000	
18	  N9	14.581	50.443	79.942	N.2	1	RES1	0.000	
19	 C10	12.080	52.830	88.827	C.2	1	RES1	0.000	
20	 C11	12.457	54.207	89.438	C.3	1	RES1	0.000	
21	 C12	13.761	54.722	88.830	C.3	1	RES1	0.000	
22	 C13	14.575	55.207	90.032	C.3	1	RES1	0.000	
23	 C14	14.108	54.344	91.187	C.3	1	RES1	0.000	
24	 C15	11.666	53.866	91.816	C.2	1	RES1	0.000	
25	 C16	12.015	53.827	93.299	C.3	1	RES1	0.000	
26	 C17	11.168	55.765	94.632	C.2	1	RES1	0.000	
27	 C18	9.907	56.345	95.206	C.3	1	RES1	0.000	
28	 C46	12.225	52.389	93.862	C.3	1	RES1	0.000	
29	 C47	12.478	52.380	95.393	C.3	1	RES1	0.000	
30	 C48	13.418	51.741	93.214	C.3	1	RES1	0.000	
31	 C49	10.985	51.522	93.582	C.3	1	RES1	0.000	
32	 C50	11.515	50.457	84.980	C.2	1	RES1	0.000	
33	 C51	12.251	50.237	83.837	C.2	1	RES1	0.000	
34	 C52	15.668	50.993	80.465	C.2	1	RES1	0.000	
@<TRIPOS>BOND
1 1 5 1
2 2 16 1
3 2 19 1
4 3 19 2
5 4 8 ar
6 4 34 ar
7 5 8 ar
8 5 18 ar
9 8 11 1
10 11 13 ar
11 11 33 ar
12 13 14 ar
13 14 15 ar
14 15 16 1
15 16 17 1
16 19 20 1
17 6 20 1
18 20 21 1
19 21 22 1
20 7 22 1
21 22 23 1
22 6 23 1
23 6 24 1
24 10 24 2
25 24 25 1
26 9 25 1
27 25 28 1
28 9 26 1
29 12 26 2
30 26 27 1
31 28 29 1
32 28 30 1
33 28 31 1
34 15 32 ar
35 32 33 ar
36 18 34 ar
@<TRIPOS>SUBSTRUCTURE
1	RES1	1	GROUP	1 ****	RES
