# created with PyMOL 2.5.2
@<TRIPOS>MOLECULE
CDK6_6H0G_E3ligase
20 22 1                 
SMALL
USER_CHARGES
@<TRIPOS>ATOM
1	  O3	2.757	53.740	-82.763	O.2	1	RES1	0.000	
2	  O4	3.727	49.751	-77.396	O.2	1	RES1	0.000	
3	  O5	0.243	50.294	-80.233	O.2	1	RES1	0.000	
4	  N6	2.124	54.375	-85.619	N.pl3	1	RES1	0.000	
5	  O6	0.310	49.847	-82.266	O.2	1	RES1	0.000	
6	  N7	1.732	51.703	-82.139	N.2	1	RES1	0.000	
7	  N8	2.040	50.050	-78.881	N.pl3	1	RES1	0.000	
8	 C20	1.315	53.230	-85.417	C.2	1	RES1	0.000	
9	 C21	0.569	52.694	-86.480	C.2	1	RES1	0.000	
10	 C22	-0.174	51.513	-86.309	C.2	1	RES1	0.000	
11	 C23	-0.156	50.809	-85.097	C.2	1	RES1	0.000	
12	 C24	0.614	51.323	-84.077	C.2	1	RES1	0.000	
13	 C25	1.346	52.506	-84.234	C.2	1	RES1	0.000	
14	 C26	2.051	52.738	-82.982	C.2	1	RES1	0.000	
15	 C27	2.229	51.635	-80.743	C.3	1	RES1	0.000	
16	 C28	3.705	51.354	-80.650	C.3	1	RES1	0.000	
17	 C29	4.134	51.297	-79.178	C.3	1	RES1	0.000	
18	 C30	3.314	50.295	-78.404	C.2	1	RES1	0.000	
19	 C31	1.399	50.607	-79.965	C.2	1	RES1	0.000	
20	 C32	0.846	50.833	-82.731	C.2	1	RES1	0.000	
@<TRIPOS>BOND
1 4 8 1
2 8 9 ar
3 8 13 ar
4 9 10 ar
5 10 11 ar
6 11 12 ar
7 12 13 ar
8 12 20 ar
9 13 14 ar
10 1 14 2
11 6 14 ar
12 6 15 1
13 15 16 1
14 15 19 1
15 16 17 1
16 17 18 1
17 2 18 2
18 7 18 1
19 3 19 2
20 7 19 1
21 5 20 2
22 6 20 ar
@<TRIPOS>SUBSTRUCTURE
1	RES1	1	GROUP	1 ****	RES
