# created with PyMOL 2.5.2
@<TRIPOS>MOLECULE
CDK6_6H0G_E3ligase
20 22 1                 
SMALL
USER_CHARGES
@<TRIPOS>ATOM
1	  O4	2.774	53.722	-82.785	O.2	1	RES1	0.000	
2	  O5	3.701	49.754	-77.381	O.2	1	RES1	0.000	
3	  N6	2.119	54.371	-85.601	N.pl3	1	RES1	0.000	
4	  O6	0.245	50.319	-80.242	O.2	1	RES1	0.000	
5	  N7	1.753	51.706	-82.135	N.2	1	RES1	0.000	
6	  O7	0.320	49.836	-82.262	O.2	1	RES1	0.000	
7	  N8	2.028	50.063	-78.877	N.pl3	1	RES1	0.000	
8	 C24	1.321	53.232	-85.405	C.2	1	RES1	0.000	
9	 C25	0.553	52.696	-86.477	C.2	1	RES1	0.000	
10	 C26	-0.218	51.522	-86.310	C.2	1	RES1	0.000	
11	 C27	-0.193	50.813	-85.110	C.2	1	RES1	0.000	
12	 C28	0.629	51.330	-84.077	C.2	1	RES1	0.000	
13	 C29	1.351	52.501	-84.235	C.2	1	RES1	0.000	
14	 C30	2.060	52.761	-82.996	C.2	1	RES1	0.000	
15	 C31	2.226	51.609	-80.760	C.3	1	RES1	0.000	
16	 C32	3.744	51.322	-80.634	C.3	1	RES1	0.000	
17	 C33	4.131	51.283	-79.169	C.3	1	RES1	0.000	
18	 C34	3.298	50.310	-78.387	C.2	1	RES1	0.000	
19	 C35	1.404	50.614	-79.992	C.2	1	RES1	0.000	
20	 C36	0.879	50.831	-82.730	C.2	1	RES1	0.000	
@<TRIPOS>BOND
1 3 8 1
2 8 9 ar
3 8 13 ar
4 9 10 ar
5 10 11 ar
6 11 12 ar
7 12 13 ar
8 12 20 ar
9 13 14 ar
10 1 14 2
11 5 14 ar
12 5 15 1
13 15 16 1
14 15 19 1
15 16 17 1
16 17 18 1
17 2 18 2
18 7 18 1
19 4 19 2
20 7 19 1
21 5 20 ar
22 6 20 2
@<TRIPOS>SUBSTRUCTURE
1	RES1	1	GROUP	1 ****	RES
