# created with PyMOL 2.5.2
@<TRIPOS>MOLECULE
CDK6_6H0G_E3ligase
20 22 1                 
SMALL
USER_CHARGES
@<TRIPOS>ATOM
1	  O5	2.792	53.741	-82.827	O.2	1	RES1	0.000	
2	  N6	1.964	54.443	-85.593	N.pl3	1	RES1	0.000	
3	  O6	3.700	49.687	-77.416	O.2	1	RES1	0.000	
4	  N7	1.712	51.794	-82.107	N.2	1	RES1	0.000	
5	  O7	0.187	50.482	-80.160	O.2	1	RES1	0.000	
6	  N8	1.983	50.069	-78.847	N.pl3	1	RES1	0.000	
7	  O8	0.447	49.818	-82.252	O.2	1	RES1	0.000	
8	 C26	1.337	53.211	-85.453	C.2	1	RES1	0.000	
9	 C27	0.529	52.673	-86.479	C.2	1	RES1	0.000	
10	 C28	-0.172	51.467	-86.300	C.2	1	RES1	0.000	
11	 C29	-0.098	50.764	-85.085	C.2	1	RES1	0.000	
12	 C30	0.657	51.331	-84.069	C.2	1	RES1	0.000	
13	 C31	1.347	52.518	-84.248	C.2	1	RES1	0.000	
14	 C32	2.053	52.807	-82.986	C.2	1	RES1	0.000	
15	 C33	2.228	51.644	-80.733	C.3	1	RES1	0.000	
16	 C34	3.719	51.236	-80.706	C.3	1	RES1	0.000	
17	 C35	4.164	51.168	-79.230	C.3	1	RES1	0.000	
18	 C36	3.277	50.220	-78.426	C.2	1	RES1	0.000	
19	 C37	1.386	50.668	-79.924	C.2	1	RES1	0.000	
20	 C38	0.914	50.853	-82.725	C.2	1	RES1	0.000	
@<TRIPOS>BOND
1 2 8 1
2 8 9 ar
3 8 13 ar
4 9 10 ar
5 10 11 ar
6 11 12 ar
7 12 13 ar
8 12 20 ar
9 13 14 ar
10 1 14 2
11 4 14 ar
12 4 15 1
13 15 16 1
14 15 19 1
15 16 17 1
16 17 18 1
17 3 18 2
18 6 18 1
19 5 19 2
20 6 19 1
21 4 20 ar
22 7 20 2
@<TRIPOS>SUBSTRUCTURE
1	RES1	1	GROUP	1 ****	RES
