# created with PyMOL 2.5.2
@<TRIPOS>MOLECULE
CDK6_6H0G_E3ligase
20 22 1                 
SMALL
USER_CHARGES
@<TRIPOS>ATOM
1	  N6	1.994	54.428	-85.612	N.pl3	1	RES1	0.000	
2	  O6	2.838	53.727	-82.845	O.2	1	RES1	0.000	
3	  N7	1.743	51.772	-82.112	N.2	1	RES1	0.000	
4	  O7	3.667	49.705	-77.388	O.2	1	RES1	0.000	
5	  N8	1.996	50.058	-78.866	N.pl3	1	RES1	0.000	
6	  O8	0.224	50.404	-80.257	O.2	1	RES1	0.000	
7	  O9	0.412	49.857	-82.251	O.2	1	RES1	0.000	
8	 C28	1.337	53.206	-85.455	C.2	1	RES1	0.000	
9	 C29	0.501	52.665	-86.459	C.2	1	RES1	0.000	
10	 C30	-0.211	51.495	-86.299	C.2	1	RES1	0.000	
11	 C31	-0.140	50.794	-85.055	C.2	1	RES1	0.000	
12	 C32	0.674	51.340	-84.059	C.2	1	RES1	0.000	
13	 C33	1.349	52.504	-84.246	C.2	1	RES1	0.000	
14	 C34	2.072	52.791	-83.003	C.2	1	RES1	0.000	
15	 C35	2.250	51.641	-80.742	C.3	1	RES1	0.000	
16	 C36	3.729	51.265	-80.674	C.3	1	RES1	0.000	
17	 C37	4.146	51.202	-79.182	C.3	1	RES1	0.000	
18	 C38	3.265	50.251	-78.402	C.2	1	RES1	0.000	
19	 C39	1.390	50.632	-79.966	C.2	1	RES1	0.000	
20	 C40	0.889	50.858	-82.693	C.2	1	RES1	0.000	
@<TRIPOS>BOND
1 1 8 1
2 8 9 ar
3 8 13 ar
4 9 10 ar
5 10 11 ar
6 11 12 ar
7 12 13 ar
8 12 20 ar
9 13 14 ar
10 2 14 2
11 3 14 ar
12 3 15 1
13 15 16 1
14 15 19 1
15 16 17 1
16 17 18 1
17 4 18 2
18 5 18 1
19 5 19 1
20 6 19 2
21 3 20 ar
22 7 20 2
@<TRIPOS>SUBSTRUCTURE
1	RES1	1	GROUP	1 ****	RES
