# created with PyMOL 2.5.2
@<TRIPOS>MOLECULE
CDK6_6H0G_E3ligase
20 22 1                 
SMALL
USER_CHARGES
@<TRIPOS>ATOM
1	  O4	2.838	53.747	-82.869	O.2	1	RES1	0.000	
2	  O5	3.661	49.669	-77.418	O.3	1	RES1	0.000	
3	  N6	1.976	54.440	-85.605	N.pl3	1	RES1	0.000	
4	  O6	0.206	50.425	-80.258	O.2	1	RES1	0.000	
5	  N7	1.748	51.798	-82.121	N.2	1	RES1	0.000	
6	  O7	0.436	49.826	-82.217	O.2	1	RES1	0.000	
7	  N8	1.974	50.038	-78.888	N.pl3	1	RES1	0.000	
8	 C21	1.339	53.194	-85.462	C.2	1	RES1	0.000	
9	 C22	0.500	52.669	-86.478	C.2	1	RES1	0.000	
10	 C23	-0.203	51.495	-86.257	C.2	1	RES1	0.000	
11	 C24	-0.142	50.791	-85.049	C.2	1	RES1	0.000	
12	 C25	0.661	51.338	-84.048	C.2	1	RES1	0.000	
13	 C26	1.358	52.467	-84.252	C.2	1	RES1	0.000	
14	 C27	2.071	52.799	-83.009	C.2	1	RES1	0.000	
15	 C28	2.254	51.661	-80.740	C.3	1	RES1	0.000	
16	 C29	3.726	51.280	-80.638	C.3	1	RES1	0.000	
17	 C30	4.148	51.192	-79.178	C.3	1	RES1	0.000	
18	 C31	3.269	50.220	-78.429	C.3	1	RES1	0.000	
19	 C32	1.379	50.649	-79.969	C.2	1	RES1	0.000	
20	 C33	0.925	50.893	-82.681	C.2	1	RES1	0.000	
@<TRIPOS>BOND
1 3 8 1
2 8 9 ar
3 8 13 ar
4 9 10 ar
5 10 11 ar
6 11 12 ar
7 12 13 ar
8 12 20 ar
9 13 14 ar
10 1 14 2
11 5 14 ar
12 5 15 1
13 15 16 1
14 15 19 1
15 16 17 1
16 17 18 1
17 2 18 1
18 7 18 1
19 4 19 2
20 7 19 1
21 5 20 ar
22 6 20 2
@<TRIPOS>SUBSTRUCTURE
1	RES1	1	GROUP	1 ****	RES
