# created with PyMOL 2.5.2
@<TRIPOS>MOLECULE
BRD2_6H0G_E3ligase
20 22 1                 
SMALL
USER_CHARGES
@<TRIPOS>ATOM
1	  O2	2.861	53.728	-82.855	O.2	1	RES1	0.000	
2	  O3	3.642	49.666	-77.389	O.3	1	RES1	0.000	
3	  O4	0.219	50.425	-80.287	O.2	1	RES1	0.000	
4	  O5	0.422	49.843	-82.220	O.2	1	RES1	0.000	
5	  N6	1.991	54.452	-85.621	N.pl3	1	RES1	0.000	
6	  N7	1.782	51.791	-82.130	N.2	1	RES1	0.000	
7	  N8	1.982	50.051	-78.885	N.pl3	1	RES1	0.000	
8	 C19	1.306	53.199	-85.463	C.2	1	RES1	0.000	
9	 C20	0.492	52.670	-86.455	C.2	1	RES1	0.000	
10	 C21	-0.209	51.468	-86.259	C.2	1	RES1	0.000	
11	 C22	-0.174	50.805	-85.045	C.2	1	RES1	0.000	
12	 C23	0.671	51.342	-84.056	C.2	1	RES1	0.000	
13	 C24	1.363	52.495	-84.237	C.2	1	RES1	0.000	
14	 C25	2.083	52.767	-83.021	C.2	1	RES1	0.000	
15	 C26	2.277	51.661	-80.753	C.3	1	RES1	0.000	
16	 C27	3.725	51.298	-80.637	C.3	1	RES1	0.000	
17	 C28	4.127	51.213	-79.158	C.3	1	RES1	0.000	
18	 C29	3.264	50.209	-78.416	C.3	1	RES1	0.000	
19	 C30	1.393	50.643	-79.990	C.2	1	RES1	0.000	
20	 C31	0.909	50.866	-82.689	C.2	1	RES1	0.000	
@<TRIPOS>BOND
1 1 14 2
2 5 8 1
3 8 9 ar
4 8 13 ar
5 9 10 ar
6 10 11 ar
7 11 12 ar
8 12 13 ar
9 12 20 ar
10 13 14 ar
11 6 14 ar
12 6 15 1
13 15 16 1
14 15 19 1
15 16 17 1
16 17 18 1
17 2 18 1
18 7 18 1
19 3 19 2
20 7 19 1
21 4 20 2
22 6 20 ar
@<TRIPOS>SUBSTRUCTURE
1	RES1	1	GROUP	1 ****	RES
